// * * * * * * * * * * * * * * * * * * * * * * * * * * * * * * * * * * * * * //
FoamFile
{
	version     2.0;
	format      ascii;
	class       dictionary;
	object      blockMeshDict;
}
// * * * * * * * * * * * * * * * * * * * * * * * * * * * * * * * * * * * * * //
convertToMeters 1;

vertices
(
	(0.109   	-0.0   	0.5004)		//0
	(-0.0571   	0.0928   	0.5004)		//1
	(-0.109   	-0.0   	0.5004)		//2
	(-0.0571   	-0.0928   	0.5004)		//3
	(1   	0   	0.5004)		//4
	(1   	0.5   	0.5004)		//5
	(0.75   	0.5   	0.5004)		//6
	(0   	0.5   	0.5004)		//7
	(-0.5   	0   	0.5004)		//8
	(0   	-0.5   	0.5004)		//9
	(0.75   	-0.5   	0.5004)		//10
	(1   	-0.5   	0.5004)		//11
	(0.4816   	0.1754   	1.251)		//12
	(-0.0193   	0.07   	1.251)		//13
	(-0.2069   	-0.0752   	1.251)		//14
	(-0.0196   	-0.0806   	1.251)		//15
	(1   	0   	1.251)		//16
	(1   	0.5   	1.251)		//17
	(0.75   	0.5   	1.251)		//18
	(0   	0.5   	1.251)		//19
	(-0.5   	0   	1.251)		//20
	(0   	-0.5   	1.251)		//21
	(0.75   	-0.5   	1.251)		//22
	(1   	-0.5   	1.251)		//23
);

blocks
(
	hex (0 4 5 6 12 16 17 18) rotatingZone (10 10 10) simpleGrading (1 1 1)
	hex (1 0 6 7 13 12 18 19) rotatingZone (10 10 10) simpleGrading (1 1 1)
	hex (2 1 7 8 14 13 19 20) rotatingZone (10 10 10) simpleGrading (1 1 1)
	hex (3 2 8 9 15 14 20 21) rotatingZone (10 10 10) simpleGrading (1 1 1)
	hex (0 3 9 10 12 15 21 22) rotatingZone (10 10 10) simpleGrading (1 1 1)
	hex (4 0 10 11 16 12 22 23) rotatingZone (10 10 10) simpleGrading (1 1 1)
);

edges
(
	BSpline 1 0
	(
		(-0.0418 0.1006 0.5004)
		(-0.0255 0.1059 0.5004)
		(-0.0086 0.1086 0.5004)
		(0.0086 0.1086 0.5004)
		(0.0255 0.1059 0.5004)
		(0.0418 0.1006 0.5004)
		(0.0571 0.0928 0.5004)
		(0.071 0.0826 0.5004)
		(0.0831 0.0704 0.5004)
		(0.0932 0.0564 0.5004)
		(0.101 0.0409 0.5004)
		(0.1063 0.0238 0.5004)
	)
	BSpline 2 1
	(
		(-0.1063 0.0238 0.5004)
		(-0.101 0.0409 0.5004)
		(-0.0932 0.0564 0.5004)
		(-0.0831 0.0704 0.5004)
		(-0.071 0.0826 0.5004)
	)
	BSpline 3 2
	(
		(-0.071 -0.0826 0.5004)
		(-0.0831 -0.0704 0.5004)
		(-0.0932 -0.0564 0.5004)
		(-0.101 -0.0409 0.5004)
		(-0.1063 -0.0238 0.5004)
	)
	BSpline 0 3
	(
		(0.1063 -0.0238 0.5004)
		(0.101 -0.0409 0.5004)
		(0.0932 -0.0564 0.5004)
		(0.0831 -0.0704 0.5004)
		(0.071 -0.0826 0.5004)
		(0.0571 -0.0928 0.5004)
		(0.0418 -0.1006 0.5004)
		(0.0255 -0.1059 0.5004)
		(0.0086 -0.1086 0.5004)
		(-0.0086 -0.1086 0.5004)
		(-0.0255 -0.1059 0.5004)
		(-0.0418 -0.1006 0.5004)
	)
	BSpline 13 12
	(
		(0.0312 0.0916 1.251)
		(0.0852 0.1099 1.251)
		(0.142 0.1223 1.251)
		(0.1994 0.1313 1.251)
		(0.2546 0.1399 1.251)
		(0.3062 0.1482 1.251)
		(0.353 0.156 1.251)
		(0.3939 0.1628 1.251)
		(0.4281 0.1679 1.251)
		(0.4547 0.1713 1.251)
		(0.4727 0.1738 1.251)
	)
	BSpline 14 13
	(
		(-0.203 -0.0593 1.251)
		(-0.1904 -0.0418 1.251)
		(-0.1698 -0.0217 1.251)
		(-0.1417 0.0003 1.251)
		(-0.1068 0.0236 1.251)
		(-0.0656 0.0471 1.251)
	)
	BSpline 15 14
	(
		(-0.0673 -0.0859 1.251)
		(-0.1099 -0.088 1.251)
		(-0.1462 -0.0873 1.251)
		(-0.1748 -0.0851 1.251)
		(-0.1951 -0.0815 1.251)
	)
	BSpline 12 15
	(
		(0.473 0.1725 1.251)
		(0.4562 0.1663 1.251)
		(0.4322 0.1558 1.251)
		(0.4016 0.1407 1.251)
		(0.3653 0.1209 1.251)
		(0.3247 0.0962 1.251)
		(0.2805 0.0673 1.251)
		(0.2338 0.0353 1.251)
		(0.1854 0.0017 1.251)
		(0.1355 -0.0299 1.251)
		(0.0838 -0.0543 1.251)
		(0.0314 -0.0707 1.251)
	)
);

boundary
(
);
// ************************************************************************* //