// * * * * * * * * * * * * * * * * * * * * * * * * * * * * * * * * * * * * * //
FoamFile
{
	version     2.0;
	format      ascii;
	class       dictionary;
	object      blockMeshDict;
}
// * * * * * * * * * * * * * * * * * * * * * * * * * * * * * * * * * * * * * //
convertToMeters 1;

vertices
(
	(0.109   	-0.0   	0.5004)		//0
	(-0.0571   	0.0928   	0.5004)		//1
	(-0.0831   	0.0704   	0.5004)		//2
	(-0.109   	-0.0   	0.5004)		//3
	(-0.0831   	-0.0704   	0.5004)		//4
	(-0.0571   	-0.0928   	0.5004)		//5
	(1   	0.0   	0.5004)		//6
	(1   	0.5   	0.5004)		//7
	(0.68   	0.5   	0.5004)		//8
	(-0.32   	0.5   	0.5004)		//9
	(-1   	0.5   	0.5004)		//10
	(-1   	-0.1   	0.5004)		//11
	(-1   	-0.5   	0.5004)		//12
	(-0.32   	-0.5   	0.5004)		//13
	(0.68   	-0.5   	0.5004)		//14
	(1   	-0.5   	0.5004)		//15
	(0.4816   	0.1754   	1.251)		//16
	(-0.0193   	0.07   	1.251)		//17
	(-0.1417   	0.0003   	1.251)		//18
	(-0.2069   	-0.0752   	1.251)		//19
	(-0.1462   	-0.0873   	1.251)		//20
	(-0.0196   	-0.0806   	1.251)		//21
	(1   	0.0   	1.251)		//22
	(1   	0.5   	1.251)		//23
	(0.68   	0.5   	1.251)		//24
	(-0.32   	0.5   	1.251)		//25
	(-1   	0.5   	1.251)		//26
	(-1   	-0.1   	1.251)		//27
	(-1   	-0.5   	1.251)		//28
	(-0.32   	-0.5   	1.251)		//29
	(0.68   	-0.5   	1.251)		//30
	(1   	-0.5   	1.251)		//31
	(0.4797   	0.1109   	1.5845)		//32
	(-0.0568   	0.0519   	1.5845)		//33
	(-0.1347   	0.0163   	1.5845)		//34
	(-0.2056   	-0.0475   	1.5845)		//35
	(-0.1491   	-0.0658   	1.5845)		//36
	(-0.0277   	-0.074   	1.5845)		//37
	(1   	0.0   	1.5845)		//38
	(1   	0.5   	1.5845)		//39
	(0.68   	0.5   	1.5845)		//40
	(-0.32   	0.5   	1.5845)		//41
	(-1   	0.5   	1.5845)		//42
	(-1   	-0.1   	1.5845)		//43
	(-1   	-0.5   	1.5845)		//44
	(-0.32   	-0.5   	1.5845)		//45
	(0.68   	-0.5   	1.5845)		//46
	(1   	-0.5   	1.5845)		//47
	(0.4634   	0.0687   	1.9181)		//48
	(-0.0499   	0.0535   	1.9181)		//49
	(-0.1265   	0.0257   	1.9181)		//50
	(-0.1986   	-0.0295   	1.9181)		//51
	(-0.1464   	-0.0511   	1.9181)		//52
	(-0.0319   	-0.068   	1.9181)		//53
	(1   	0.0   	1.9181)		//54
	(1   	0.5   	1.9181)		//55
	(0.68   	0.5   	1.9181)		//56
	(-0.32   	0.5   	1.9181)		//57
	(-1   	0.5   	1.9181)		//58
	(-1   	-0.1   	1.9181)		//59
	(-1   	-0.5   	1.9181)		//60
	(-0.32   	-0.5   	1.9181)		//61
	(0.68   	-0.5   	1.9181)		//62
	(1   	-0.5   	1.9181)		//63
	(0.4436   	0.0416   	2.2517)		//64
	(-0.0447   	0.0534   	2.2517)		//65
	(-0.1188   	0.0308   	2.2517)		//66
	(-0.1901   	-0.0178   	2.2517)		//67
	(-0.1417   	-0.0411   	2.2517)		//68
	(-0.0338   	-0.063   	2.2517)		//69
	(1   	0.0   	2.2517)		//70
	(1   	0.5   	2.2517)		//71
	(0.68   	0.5   	2.2517)		//72
	(-0.32   	0.5   	2.2517)		//73
	(-1   	0.5   	2.2517)		//74
	(-1   	-0.1   	2.2517)		//75
	(-1   	-0.5   	2.2517)		//76
	(-0.32   	-0.5   	2.2517)		//77
	(0.68   	-0.5   	2.2517)		//78
	(1   	-0.5   	2.2517)		//79
	(0.4211   	0.0245   	2.5853)		//80
	(-0.0405   	0.052   	2.5853)		//81
	(-0.1114   	0.0332   	2.5853)		//82
	(-0.1805   	-0.0105   	2.5853)		//83
	(-0.107   	-0.0431   	2.5853)		//84
	(-0.0341   	-0.0585   	2.5853)		//85
	(1   	0.0   	2.5853)		//86
	(1   	0.5   	2.5853)		//87
	(0.68   	0.5   	2.5853)		//88
	(-0.32   	0.5   	2.5853)		//89
	(-1   	0.5   	2.5853)		//90
	(-1   	-0.1   	2.5853)		//91
	(-1   	-0.5   	2.5853)		//92
	(-0.32   	-0.5   	2.5853)		//93
	(0.68   	-0.5   	2.5853)		//94
	(1   	-0.5   	2.5853)		//95
	(0.3979   	0.0134   	2.9189)		//96
	(-0.037   	0.05   	2.9189)		//97
	(-0.1044   	0.0339   	2.9189)		//98
	(-0.1705   	-0.0058   	2.9189)		//99
	(-0.1019   	-0.0382   	2.9189)		//100
	(-0.0335   	-0.0544   	2.9189)		//101
	(1   	0.0   	2.9189)		//102
	(1   	0.5   	2.9189)		//103
	(0.68   	0.5   	2.9189)		//104
	(-0.32   	0.5   	2.9189)		//105
	(-1   	0.5   	2.9189)		//106
	(-1   	-0.1   	2.9189)		//107
	(-1   	-0.5   	2.9189)		//108
	(-0.32   	-0.5   	2.9189)		//109
	(0.68   	-0.5   	2.9189)		//110
	(1   	-0.5   	2.9189)		//111
	(0.3745   	0.0064   	3.2525)		//112
	(-0.034   	0.0476   	3.2525)		//113
	(-0.0976   	0.0335   	3.2525)		//114
	(-0.1605   	-0.0027   	3.2525)		//115
	(-0.0965   	-0.0343   	3.2525)		//116
	(-0.0323   	-0.0506   	3.2525)		//117
	(1   	0.0   	3.2525)		//118
	(1   	0.5   	3.2525)		//119
	(0.68   	0.5   	3.2525)		//120
	(-0.32   	0.5   	3.2525)		//121
	(-1   	0.5   	3.2525)		//122
	(-1   	-0.1   	3.2525)		//123
	(-1   	-0.5   	3.2525)		//124
	(-0.32   	-0.5   	3.2525)		//125
	(0.68   	-0.5   	3.2525)		//126
	(1   	-0.5   	3.2525)		//127
	(0.3508   	0.0019   	3.5861)		//128
	(-0.0314   	0.045   	3.5861)		//129
	(-0.0911   	0.0324   	3.5861)		//130
	(-0.1503   	-0.0008   	3.5861)		//131
	(-0.0907   	-0.0311   	3.5861)		//132
	(-0.0308   	-0.0471   	3.5861)		//133
	(1   	0.0   	3.5861)		//134
	(1   	0.5   	3.5861)		//135
	(0.68   	0.5   	3.5861)		//136
	(-0.32   	0.5   	3.5861)		//137
	(-1   	0.5   	3.5861)		//138
	(-1   	-0.1   	3.5861)		//139
	(-1   	-0.5   	3.5861)		//140
	(-0.32   	-0.5   	3.5861)		//141
	(0.68   	-0.5   	3.5861)		//142
	(1   	-0.5   	3.5861)		//143
	(0.3274   	-0.0013   	3.9197)		//144
	(-0.0289   	0.0422   	3.9197)		//145
	(-0.0847   	0.0311   	3.9197)		//146
	(-0.1403   	0.0005   	3.9197)		//147
	(-0.0849   	-0.0282   	3.9197)		//148
	(-0.0292   	-0.0437   	3.9197)		//149
	(1   	0.0   	3.9197)		//150
	(1   	0.5   	3.9197)		//151
	(0.68   	0.5   	3.9197)		//152
	(-0.32   	0.5   	3.9197)		//153
	(-1   	0.5   	3.9197)		//154
	(-1   	-0.1   	3.9197)		//155
	(-1   	-0.5   	3.9197)		//156
	(-0.32   	-0.5   	3.9197)		//157
	(0.68   	-0.5   	3.9197)		//158
	(1   	-0.5   	3.9197)		//159
	(0.3038   	-0.0038   	4.2533)		//160
	(-0.0264   	0.0394   	4.2533)		//161
	(-0.0784   	0.0295   	4.2533)		//162
	(-0.1302   	0.0016   	4.2533)		//163
	(-0.079   	-0.0255   	4.2533)		//164
	(-0.0274   	-0.0403   	4.2533)		//165
	(1   	0.0   	4.2533)		//166
	(1   	0.5   	4.2533)		//167
	(0.68   	0.5   	4.2533)		//168
	(-0.32   	0.5   	4.2533)		//169
	(-1   	0.5   	4.2533)		//170
	(-1   	-0.1   	4.2533)		//171
	(-1   	-0.5   	4.2533)		//172
	(-0.32   	-0.5   	4.2533)		//173
	(0.68   	-0.5   	4.2533)		//174
	(1   	-0.5   	4.2533)		//175
	(0.28   	-0.0058   	4.5868)		//176
	(-0.0241   	0.0365   	4.5868)		//177
	(-0.072   	0.0278   	4.5868)		//178
	(-0.12   	0.0025   	4.5868)		//179
	(-0.0731   	-0.0229   	4.5868)		//180
	(-0.0256   	-0.0369   	4.5868)		//181
	(1   	0.0   	4.5868)		//182
	(1   	0.5   	4.5868)		//183
	(0.68   	0.5   	4.5868)		//184
	(-0.32   	0.5   	4.5868)		//185
	(-1   	0.5   	4.5868)		//186
	(-1   	-0.1   	4.5868)		//187
	(-1   	-0.5   	4.5868)		//188
	(-0.32   	-0.5   	4.5868)		//189
	(0.68   	-0.5   	4.5868)		//190
	(1   	-0.5   	4.5868)		//191
	(0.2563   	-0.0074   	4.9204)		//192
	(-0.0218   	0.0336   	4.9204)		//193
	(-0.0657   	0.026   	4.9204)		//194
	(-0.1099   	0.0032   	4.9204)		//195
	(-0.0671   	-0.0204   	4.9204)		//196
	(-0.0237   	-0.0336   	4.9204)		//197
	(1   	0.0   	4.9204)		//198
	(1   	0.5   	4.9204)		//199
	(0.68   	0.5   	4.9204)		//200
	(-0.32   	0.5   	4.9204)		//201
	(-1   	0.5   	4.9204)		//202
	(-1   	-0.1   	4.9204)		//203
	(-1   	-0.5   	4.9204)		//204
	(-0.32   	-0.5   	4.9204)		//205
	(0.68   	-0.5   	4.9204)		//206
	(1   	-0.5   	4.9204)		//207
	(0.2329   	-0.0086   	5.254)		//208
	(-0.0195   	0.0307   	5.254)		//209
	(-0.0596   	0.0241   	5.254)		//210
	(-0.0998   	0.0037   	5.254)		//211
	(-0.0611   	-0.0181   	5.254)		//212
	(-0.0218   	-0.0304   	5.254)		//213
	(1   	0.0   	5.254)		//214
	(1   	0.5   	5.254)		//215
	(0.68   	0.5   	5.254)		//216
	(-0.32   	0.5   	5.254)		//217
	(-1   	0.5   	5.254)		//218
	(-1   	-0.1   	5.254)		//219
	(-1   	-0.5   	5.254)		//220
	(-0.32   	-0.5   	5.254)		//221
	(0.68   	-0.5   	5.254)		//222
	(1   	-0.5   	5.254)		//223
	(0.2133   	-0.0093   	5.532)		//224
	(-0.0177   	0.0283   	5.532)		//225
	(-0.0544   	0.0224   	5.532)		//226
	(-0.0914   	0.004   	5.532)		//227
	(-0.0561   	-0.0162   	5.532)		//228
	(-0.0202   	-0.0277   	5.532)		//229
	(1   	0.0   	5.532)		//230
	(1   	0.5   	5.532)		//231
	(0.68   	0.5   	5.532)		//232
	(-0.32   	0.5   	5.532)		//233
	(-1   	0.5   	5.532)		//234
	(-1   	-0.1   	5.532)		//235
	(-1   	-0.5   	5.532)		//236
	(-0.32   	-0.5   	5.532)		//237
	(0.68   	-0.5   	5.532)		//238
	(1   	-0.5   	5.532)		//239
);

blocks
(
	hex (0 6 7 8 16 22 23 24) rotatingZone (5 15 10) edgeGrading (1 1 1 1 30 1 1 30 1 1 1 1)
	hex (1 0 8 9 17 16 24 25) rotatingZone (15 15 10) simpleGrading (1 30 1)
	hex (2 1 9 10 18 17 25 26) rotatingZone (10 15 10) simpleGrading (1 30 1)
	hex (3 2 10 11 19 18 26 27) rotatingZone (15 15 10) simpleGrading (1 30 1)
	hex (4 3 11 12 20 19 27 28) rotatingZone (15 15 10) simpleGrading (1 30 1)
	hex (5 4 12 13 21 20 28 29) rotatingZone (10 15 10) simpleGrading (1 30 1)
	hex (0 5 13 14 16 21 29 30) rotatingZone (15 15 10) simpleGrading (1 30 1)
	hex (6 0 14 15 22 16 30 31) rotatingZone (5 15 10) edgeGrading (1 1 1 1 1 30 30 1 1 1 1 1)
	hex (16 22 23 24 32 38 39 40) rotatingZone (5 15 10) edgeGrading (1 1 1 1 30 1 1 30 1 1 1 1)
	hex (17 16 24 25 33 32 40 41) rotatingZone (15 15 10) simpleGrading (1 30 1)
	hex (18 17 25 26 34 33 41 42) rotatingZone (10 15 10) simpleGrading (1 30 1)
	hex (19 18 26 27 35 34 42 43) rotatingZone (15 15 10) simpleGrading (1 30 1)
	hex (20 19 27 28 36 35 43 44) rotatingZone (15 15 10) simpleGrading (1 30 1)
	hex (21 20 28 29 37 36 44 45) rotatingZone (10 15 10) simpleGrading (1 30 1)
	hex (16 21 29 30 32 37 45 46) rotatingZone (15 15 10) simpleGrading (1 30 1)
	hex (22 16 30 31 38 32 46 47) rotatingZone (5 15 10) edgeGrading (1 1 1 1 1 30 30 1 1 1 1 1)
	hex (32 38 39 40 48 54 55 56) rotatingZone (5 15 10) edgeGrading (1 1 1 1 30 1 1 30 1 1 1 1)
	hex (33 32 40 41 49 48 56 57) rotatingZone (15 15 10) simpleGrading (1 30 1)
	hex (34 33 41 42 50 49 57 58) rotatingZone (10 15 10) simpleGrading (1 30 1)
	hex (35 34 42 43 51 50 58 59) rotatingZone (15 15 10) simpleGrading (1 30 1)
	hex (36 35 43 44 52 51 59 60) rotatingZone (15 15 10) simpleGrading (1 30 1)
	hex (37 36 44 45 53 52 60 61) rotatingZone (10 15 10) simpleGrading (1 30 1)
	hex (32 37 45 46 48 53 61 62) rotatingZone (15 15 10) simpleGrading (1 30 1)
	hex (38 32 46 47 54 48 62 63) rotatingZone (5 15 10) edgeGrading (1 1 1 1 1 30 30 1 1 1 1 1)
	hex (48 54 55 56 64 70 71 72) rotatingZone (5 15 10) edgeGrading (1 1 1 1 30 1 1 30 1 1 1 1)
	hex (49 48 56 57 65 64 72 73) rotatingZone (15 15 10) simpleGrading (1 30 1)
	hex (50 49 57 58 66 65 73 74) rotatingZone (10 15 10) simpleGrading (1 30 1)
	hex (51 50 58 59 67 66 74 75) rotatingZone (15 15 10) simpleGrading (1 30 1)
	hex (52 51 59 60 68 67 75 76) rotatingZone (15 15 10) simpleGrading (1 30 1)
	hex (53 52 60 61 69 68 76 77) rotatingZone (10 15 10) simpleGrading (1 30 1)
	hex (48 53 61 62 64 69 77 78) rotatingZone (15 15 10) simpleGrading (1 30 1)
	hex (54 48 62 63 70 64 78 79) rotatingZone (5 15 10) edgeGrading (1 1 1 1 1 30 30 1 1 1 1 1)
	hex (64 70 71 72 80 86 87 88) rotatingZone (5 15 10) edgeGrading (1 1 1 1 30 1 1 30 1 1 1 1)
	hex (65 64 72 73 81 80 88 89) rotatingZone (15 15 10) simpleGrading (1 30 1)
	hex (66 65 73 74 82 81 89 90) rotatingZone (10 15 10) simpleGrading (1 30 1)
	hex (67 66 74 75 83 82 90 91) rotatingZone (15 15 10) simpleGrading (1 30 1)
	hex (68 67 75 76 84 83 91 92) rotatingZone (15 15 10) simpleGrading (1 30 1)
	hex (69 68 76 77 85 84 92 93) rotatingZone (10 15 10) simpleGrading (1 30 1)
	hex (64 69 77 78 80 85 93 94) rotatingZone (15 15 10) simpleGrading (1 30 1)
	hex (70 64 78 79 86 80 94 95) rotatingZone (5 15 10) edgeGrading (1 1 1 1 1 30 30 1 1 1 1 1)
	hex (80 86 87 88 96 102 103 104) rotatingZone (5 15 10) edgeGrading (1 1 1 1 30 1 1 30 1 1 1 1)
	hex (81 80 88 89 97 96 104 105) rotatingZone (15 15 10) simpleGrading (1 30 1)
	hex (82 81 89 90 98 97 105 106) rotatingZone (10 15 10) simpleGrading (1 30 1)
	hex (83 82 90 91 99 98 106 107) rotatingZone (15 15 10) simpleGrading (1 30 1)
	hex (84 83 91 92 100 99 107 108) rotatingZone (15 15 10) simpleGrading (1 30 1)
	hex (85 84 92 93 101 100 108 109) rotatingZone (10 15 10) simpleGrading (1 30 1)
	hex (80 85 93 94 96 101 109 110) rotatingZone (15 15 10) simpleGrading (1 30 1)
	hex (86 80 94 95 102 96 110 111) rotatingZone (5 15 10) edgeGrading (1 1 1 1 1 30 30 1 1 1 1 1)
	hex (96 102 103 104 112 118 119 120) rotatingZone (5 15 10) edgeGrading (1 1 1 1 30 1 1 30 1 1 1 1)
	hex (97 96 104 105 113 112 120 121) rotatingZone (15 15 10) simpleGrading (1 30 1)
	hex (98 97 105 106 114 113 121 122) rotatingZone (10 15 10) simpleGrading (1 30 1)
	hex (99 98 106 107 115 114 122 123) rotatingZone (15 15 10) simpleGrading (1 30 1)
	hex (100 99 107 108 116 115 123 124) rotatingZone (15 15 10) simpleGrading (1 30 1)
	hex (101 100 108 109 117 116 124 125) rotatingZone (10 15 10) simpleGrading (1 30 1)
	hex (96 101 109 110 112 117 125 126) rotatingZone (15 15 10) simpleGrading (1 30 1)
	hex (102 96 110 111 118 112 126 127) rotatingZone (5 15 10) edgeGrading (1 1 1 1 1 30 30 1 1 1 1 1)
	hex (112 118 119 120 128 134 135 136) rotatingZone (5 15 10) edgeGrading (1 1 1 1 30 1 1 30 1 1 1 1)
	hex (113 112 120 121 129 128 136 137) rotatingZone (15 15 10) simpleGrading (1 30 1)
	hex (114 113 121 122 130 129 137 138) rotatingZone (10 15 10) simpleGrading (1 30 1)
	hex (115 114 122 123 131 130 138 139) rotatingZone (15 15 10) simpleGrading (1 30 1)
	hex (116 115 123 124 132 131 139 140) rotatingZone (15 15 10) simpleGrading (1 30 1)
	hex (117 116 124 125 133 132 140 141) rotatingZone (10 15 10) simpleGrading (1 30 1)
	hex (112 117 125 126 128 133 141 142) rotatingZone (15 15 10) simpleGrading (1 30 1)
	hex (118 112 126 127 134 128 142 143) rotatingZone (5 15 10) edgeGrading (1 1 1 1 1 30 30 1 1 1 1 1)
	hex (128 134 135 136 144 150 151 152) rotatingZone (5 15 10) edgeGrading (1 1 1 1 30 1 1 30 1 1 1 1)
	hex (129 128 136 137 145 144 152 153) rotatingZone (15 15 10) simpleGrading (1 30 1)
	hex (130 129 137 138 146 145 153 154) rotatingZone (10 15 10) simpleGrading (1 30 1)
	hex (131 130 138 139 147 146 154 155) rotatingZone (15 15 10) simpleGrading (1 30 1)
	hex (132 131 139 140 148 147 155 156) rotatingZone (15 15 10) simpleGrading (1 30 1)
	hex (133 132 140 141 149 148 156 157) rotatingZone (10 15 10) simpleGrading (1 30 1)
	hex (128 133 141 142 144 149 157 158) rotatingZone (15 15 10) simpleGrading (1 30 1)
	hex (134 128 142 143 150 144 158 159) rotatingZone (5 15 10) edgeGrading (1 1 1 1 1 30 30 1 1 1 1 1)
	hex (144 150 151 152 160 166 167 168) rotatingZone (5 15 10) edgeGrading (1 1 1 1 30 1 1 30 1 1 1 1)
	hex (145 144 152 153 161 160 168 169) rotatingZone (15 15 10) simpleGrading (1 30 1)
	hex (146 145 153 154 162 161 169 170) rotatingZone (10 15 10) simpleGrading (1 30 1)
	hex (147 146 154 155 163 162 170 171) rotatingZone (15 15 10) simpleGrading (1 30 1)
	hex (148 147 155 156 164 163 171 172) rotatingZone (15 15 10) simpleGrading (1 30 1)
	hex (149 148 156 157 165 164 172 173) rotatingZone (10 15 10) simpleGrading (1 30 1)
	hex (144 149 157 158 160 165 173 174) rotatingZone (15 15 10) simpleGrading (1 30 1)
	hex (150 144 158 159 166 160 174 175) rotatingZone (5 15 10) edgeGrading (1 1 1 1 1 30 30 1 1 1 1 1)
	hex (160 166 167 168 176 182 183 184) rotatingZone (5 15 10) edgeGrading (1 1 1 1 30 1 1 30 1 1 1 1)
	hex (161 160 168 169 177 176 184 185) rotatingZone (15 15 10) simpleGrading (1 30 1)
	hex (162 161 169 170 178 177 185 186) rotatingZone (10 15 10) simpleGrading (1 30 1)
	hex (163 162 170 171 179 178 186 187) rotatingZone (15 15 10) simpleGrading (1 30 1)
	hex (164 163 171 172 180 179 187 188) rotatingZone (15 15 10) simpleGrading (1 30 1)
	hex (165 164 172 173 181 180 188 189) rotatingZone (10 15 10) simpleGrading (1 30 1)
	hex (160 165 173 174 176 181 189 190) rotatingZone (15 15 10) simpleGrading (1 30 1)
	hex (166 160 174 175 182 176 190 191) rotatingZone (5 15 10) edgeGrading (1 1 1 1 1 30 30 1 1 1 1 1)
	hex (176 182 183 184 192 198 199 200) rotatingZone (5 15 10) edgeGrading (1 1 1 1 30 1 1 30 1 1 1 1)
	hex (177 176 184 185 193 192 200 201) rotatingZone (15 15 10) simpleGrading (1 30 1)
	hex (178 177 185 186 194 193 201 202) rotatingZone (10 15 10) simpleGrading (1 30 1)
	hex (179 178 186 187 195 194 202 203) rotatingZone (15 15 10) simpleGrading (1 30 1)
	hex (180 179 187 188 196 195 203 204) rotatingZone (15 15 10) simpleGrading (1 30 1)
	hex (181 180 188 189 197 196 204 205) rotatingZone (10 15 10) simpleGrading (1 30 1)
	hex (176 181 189 190 192 197 205 206) rotatingZone (15 15 10) simpleGrading (1 30 1)
	hex (182 176 190 191 198 192 206 207) rotatingZone (5 15 10) edgeGrading (1 1 1 1 1 30 30 1 1 1 1 1)
	hex (192 198 199 200 208 214 215 216) rotatingZone (5 15 10) edgeGrading (1 1 1 1 30 1 1 30 1 1 1 1)
	hex (193 192 200 201 209 208 216 217) rotatingZone (15 15 10) simpleGrading (1 30 1)
	hex (194 193 201 202 210 209 217 218) rotatingZone (10 15 10) simpleGrading (1 30 1)
	hex (195 194 202 203 211 210 218 219) rotatingZone (15 15 10) simpleGrading (1 30 1)
	hex (196 195 203 204 212 211 219 220) rotatingZone (15 15 10) simpleGrading (1 30 1)
	hex (197 196 204 205 213 212 220 221) rotatingZone (10 15 10) simpleGrading (1 30 1)
	hex (192 197 205 206 208 213 221 222) rotatingZone (15 15 10) simpleGrading (1 30 1)
	hex (198 192 206 207 214 208 222 223) rotatingZone (5 15 10) edgeGrading (1 1 1 1 1 30 30 1 1 1 1 1)
	hex (208 214 215 216 224 230 231 232) rotatingZone (5 15 10) edgeGrading (1 1 1 1 30 1 1 30 1 1 1 1)
	hex (209 208 216 217 225 224 232 233) rotatingZone (15 15 10) simpleGrading (1 30 1)
	hex (210 209 217 218 226 225 233 234) rotatingZone (10 15 10) simpleGrading (1 30 1)
	hex (211 210 218 219 227 226 234 235) rotatingZone (15 15 10) simpleGrading (1 30 1)
	hex (212 211 219 220 228 227 235 236) rotatingZone (15 15 10) simpleGrading (1 30 1)
	hex (213 212 220 221 229 228 236 237) rotatingZone (10 15 10) simpleGrading (1 30 1)
	hex (208 213 221 222 224 229 237 238) rotatingZone (15 15 10) simpleGrading (1 30 1)
	hex (214 208 222 223 230 224 238 239) rotatingZone (5 15 10) edgeGrading (1 1 1 1 1 30 30 1 1 1 1 1)
);

edges
(
	BSpline 1 0
	(
		(-0.0418 0.1006 0.5004)
		(-0.0255 0.1059 0.5004)
		(-0.0086 0.1086 0.5004)
		(0.0086 0.1086 0.5004)
		(0.0255 0.1059 0.5004)
		(0.0418 0.1006 0.5004)
		(0.0571 0.0928 0.5004)
		(0.071 0.0826 0.5004)
		(0.0831 0.0704 0.5004)
		(0.0932 0.0564 0.5004)
		(0.101 0.0409 0.5004)
		(0.1063 0.0238 0.5004)
	)
	BSpline 2 1
	(
		(-0.071 0.0826 0.5004)
	)
	BSpline 3 2
	(
		(-0.1063 0.0238 0.5004)
		(-0.101 0.0409 0.5004)
		(-0.0932 0.0564 0.5004)
	)
	BSpline 4 3
	(
		(-0.0932 -0.0564 0.5004)
		(-0.101 -0.0409 0.5004)
		(-0.1063 -0.0238 0.5004)
	)
	BSpline 5 4
	(
		(-0.071 -0.0826 0.5004)
	)
	BSpline 0 5
	(
		(0.1063 -0.0238 0.5004)
		(0.101 -0.0409 0.5004)
		(0.0932 -0.0564 0.5004)
		(0.0831 -0.0704 0.5004)
		(0.071 -0.0826 0.5004)
		(0.0571 -0.0928 0.5004)
		(0.0418 -0.1006 0.5004)
		(0.0255 -0.1059 0.5004)
		(0.0086 -0.1086 0.5004)
		(-0.0086 -0.1086 0.5004)
		(-0.0255 -0.1059 0.5004)
		(-0.0418 -0.1006 0.5004)
	)
	BSpline 17 16
	(
		(0.0312 0.0916 1.251)
		(0.0852 0.1099 1.251)
		(0.142 0.1223 1.251)
		(0.1994 0.1313 1.251)
		(0.2546 0.1399 1.251)
		(0.3062 0.1482 1.251)
		(0.353 0.156 1.251)
		(0.3939 0.1628 1.251)
		(0.4281 0.1679 1.251)
		(0.4547 0.1713 1.251)
		(0.4727 0.1738 1.251)
	)
	BSpline 18 17
	(
		(-0.1068 0.0236 1.251)
		(-0.0656 0.0471 1.251)
	)
	BSpline 19 18
	(
		(-0.203 -0.0593 1.251)
		(-0.1904 -0.0418 1.251)
		(-0.1698 -0.0217 1.251)
	)
	BSpline 20 19
	(
		(-0.1748 -0.0851 1.251)
		(-0.1951 -0.0815 1.251)
	)
	BSpline 21 20
	(
		(-0.0673 -0.0859 1.251)
		(-0.1099 -0.088 1.251)
	)
	BSpline 16 21
	(
		(0.473 0.1725 1.251)
		(0.4562 0.1663 1.251)
		(0.4322 0.1558 1.251)
		(0.4016 0.1407 1.251)
		(0.3653 0.1209 1.251)
		(0.3247 0.0962 1.251)
		(0.2805 0.0673 1.251)
		(0.2338 0.0353 1.251)
		(0.1854 0.0017 1.251)
		(0.1355 -0.0299 1.251)
		(0.0838 -0.0543 1.251)
		(0.0314 -0.0707 1.251)
	)
	BSpline 33 32
	(
		(-0.01 0.0683 1.5845)
		(0.0407 0.0829 1.5845)
		(0.0942 0.094 1.5845)
		(0.1498 0.0993 1.5845)
		(0.2055 0.1011 1.5845)
		(0.2591 0.1029 1.5845)
		(0.3093 0.1048 1.5845)
		(0.3548 0.1069 1.5845)
		(0.3945 0.1087 1.5845)
		(0.4277 0.1096 1.5845)
		(0.4535 0.1099 1.5845)
		(0.4709 0.1103 1.5845)
	)
	BSpline 34 33
	(
		(-0.0987 0.0344 1.5845)
	)
	BSpline 35 34
	(
		(-0.2 -0.033 1.5845)
		(-0.186 -0.018 1.5845)
		(-0.164 -0.0013 1.5845)
	)
	BSpline 36 35
	(
		(-0.1761 -0.0604 1.5845)
		(-0.195 -0.0548 1.5845)
	)
	BSpline 37 36
	(
		(-0.0738 -0.0735 1.5845)
		(-0.1146 -0.0706 1.5845)
	)
	BSpline 32 37
	(
		(0.4711 0.1094 1.5845)
		(0.4544 0.1055 1.5845)
		(0.4303 0.0984 1.5845)
		(0.3994 0.0877 1.5845)
		(0.3626 0.0732 1.5845)
		(0.321 0.0544 1.5845)
		(0.2755 0.0321 1.5845)
		(0.2273 0.007 1.5845)
		(0.1772 -0.0194 1.5845)
		(0.1261 -0.0437 1.5845)
		(0.0739 -0.0609 1.5845)
		(0.0221 -0.0705 1.5845)
	)
	BSpline 49 48
	(
		(-0.0043 0.0656 1.9181)
		(0.0449 0.0756 1.9181)
		(0.0965 0.082 1.9181)
		(0.1497 0.0828 1.9181)
		(0.2026 0.0803 1.9181)
		(0.2536 0.0779 1.9181)
		(0.3014 0.0759 1.9181)
		(0.3447 0.0744 1.9181)
		(0.3825 0.0731 1.9181)
		(0.4141 0.0714 1.9181)
		(0.4385 0.0697 1.9181)
		(0.4551 0.0688 1.9181)
	)
	BSpline 50 49
	(
		(-0.091 0.0401 1.9181)
	)
	BSpline 51 50
	(
		(-0.1923 -0.0161 1.9181)
		(-0.1778 -0.0029 1.9181)
		(-0.1557 0.0112 1.9181)
	)
	BSpline 52 51
	(
		(-0.1717 -0.0439 1.9181)
		(-0.1891 -0.0371 1.9181)
	)
	BSpline 53 52
	(
		(-0.0756 -0.0642 1.9181)
		(-0.1141 -0.0582 1.9181)
	)
	BSpline 48 53
	(
		(0.4552 0.0679 1.9181)
		(0.4391 0.0656 1.9181)
		(0.4157 0.0607 1.9181)
		(0.3855 0.0529 1.9181)
		(0.3495 0.0418 1.9181)
		(0.3086 0.0272 1.9181)
		(0.2638 0.0095 1.9181)
		(0.2161 -0.0106 1.9181)
		(0.1667 -0.0318 1.9181)
		(0.1163 -0.051 1.9181)
		(0.0655 -0.0634 1.9181)
		(0.0156 -0.0686 1.9181)
	)
	BSpline 65 64
	(
		(-0.0007 0.0625 2.2517)
		(0.0465 0.0695 2.2517)
		(0.0959 0.073 2.2517)
		(0.1464 0.071 2.2517)
		(0.1965 0.0659 2.2517)
		(0.2448 0.061 2.2517)
		(0.2901 0.0567 2.2517)
		(0.3311 0.0531 2.2517)
		(0.367 0.0499 2.2517)
		(0.3969 0.0467 2.2517)
		(0.42 0.0438 2.2517)
		(0.4357 0.0421 2.2517)
	)
	BSpline 66 65
	(
		(-0.0844 0.0427 2.2517)
	)
	BSpline 67 66
	(
		(-0.1834 -0.0055 2.2517)
		(-0.169 0.0063 2.2517)
		(-0.1473 0.0186 2.2517)
	)
	BSpline 68 67
	(
		(-0.1653 -0.033 2.2517)
		(-0.1815 -0.0256 2.2517)
	)
	BSpline 69 68
	(
		(-0.075 -0.0571 2.2517)
		(-0.1113 -0.0495 2.2517)
	)
	BSpline 64 69
	(
		(0.4358 0.0413 2.2517)
		(0.4204 0.0398 2.2517)
		(0.3978 0.0364 2.2517)
		(0.3688 0.0305 2.2517)
		(0.3341 0.0219 2.2517)
		(0.2944 0.0101 2.2517)
		(0.251 -0.0044 2.2517)
		(0.2047 -0.0211 2.2517)
		(0.1567 -0.0388 2.2517)
		(0.1078 -0.0544 2.2517)
		(0.059 -0.0636 2.2517)
		(0.0113 -0.0659 2.2517)
	)
	BSpline 81 80
	(
		(0.0014 0.0592 2.5853)
		(0.0463 0.0642 2.5853)
		(0.0931 0.0658 2.5853)
		(0.1409 0.0622 2.5853)
		(0.1882 0.0558 2.5853)
		(0.2337 0.0495 2.5853)
		(0.2764 0.0439 2.5853)
		(0.3151 0.0391 2.5853)
		(0.3489 0.0349 2.5853)
		(0.3771 0.0309 2.5853)
		(0.3988 0.0274 2.5853)
		(0.4137 0.0252 2.5853)
	)
	BSpline 82 81
	(
		(-0.0784 0.0433 2.5853)
	)
	BSpline 83 82
	(
		(-0.1737 0.001 2.5853)
		(-0.1597 0.0117 2.5853)
		(-0.1387 0.0226 2.5853)
	)
	BSpline 84 83
	(
		(-0.1354 -0.0341 2.5853)
		(-0.1575 -0.0257 2.5853)
		(-0.1726 -0.0181 2.5853)
	)
	BSpline 85 84
	(
		(-0.0729 -0.0515 2.5853)
	)
	BSpline 80 85
	(
		(0.4137 0.0244 2.5853)
		(0.3991 0.0236 2.5853)
		(0.3776 0.0211 2.5853)
		(0.35 0.0165 2.5853)
		(0.3168 0.0095 2.5853)
		(0.2789 -0.0003 2.5853)
		(0.2373 -0.0126 2.5853)
		(0.193 -0.0268 2.5853)
		(0.1469 -0.0419 2.5853)
		(0.1002 -0.0551 2.5853)
		(0.0537 -0.0621 2.5853)
		(0.0085 -0.0627 2.5853)
	)
	BSpline 97 96
	(
		(0.0027 0.0558 2.9189)
		(0.0452 0.0595 2.9189)
		(0.0894 0.06 2.9189)
		(0.1343 0.0555 2.9189)
		(0.1788 0.0483 2.9189)
		(0.2216 0.0413 2.9189)
		(0.2617 0.0351 2.9189)
		(0.2982 0.0296 2.9189)
		(0.33 0.0249 2.9189)
		(0.3565 0.0205 2.9189)
		(0.3769 0.0167 2.9189)
		(0.3908 0.0143 2.9189)
	)
	BSpline 98 97
	(
		(-0.073 0.0426 2.9189)
	)
	BSpline 99 98
	(
		(-0.1639 0.0049 2.9189)
		(-0.1504 0.0147 2.9189)
		(-0.1304 0.0245 2.9189)
	)
	BSpline 100 99
	(
		(-0.1286 -0.0291 2.9189)
		(-0.1492 -0.0206 2.9189)
		(-0.1633 -0.0131 2.9189)
	)
	BSpline 101 100
	(
		(-0.07 -0.0469 2.9189)
	)
	BSpline 96 101
	(
		(0.3909 0.0135 2.9189)
		(0.377 0.0131 2.9189)
		(0.3568 0.0112 2.9189)
		(0.3306 0.0075 2.9189)
		(0.2991 0.0017 2.9189)
		(0.2631 -0.0067 2.9189)
		(0.2236 -0.0173 2.9189)
		(0.1814 -0.0298 2.9189)
		(0.1376 -0.0429 2.9189)
		(0.0932 -0.0542 2.9189)
		(0.0492 -0.0598 2.9189)
		(0.0066 -0.0594 2.9189)
	)
	BSpline 113 112
	(
		(0.0034 0.0524 3.2525)
		(0.0434 0.0552 3.2525)
		(0.085 0.055 3.2525)
		(0.1272 0.0501 3.2525)
		(0.1689 0.0426 3.2525)
		(0.2091 0.0354 3.2525)
		(0.2468 0.0289 3.2525)
		(0.2809 0.0232 3.2525)
		(0.3108 0.0182 3.2525)
		(0.3356 0.0137 3.2525)
		(0.3548 0.0098 3.2525)
		(0.3679 0.0073 3.2525)
	)
	BSpline 114 113
	(
		(-0.068 0.0412 3.2525)
	)
	BSpline 115 114
	(
		(-0.1541 0.0072 3.2525)
		(-0.1412 0.0162 3.2525)
		(-0.1222 0.0251 3.2525)
	)
	BSpline 116 115
	(
		(-0.1214 -0.0253 3.2525)
		(-0.1406 -0.017 3.2525)
		(-0.1538 -0.0098 3.2525)
	)
	BSpline 117 116
	(
		(-0.0665 -0.043 3.2525)
	)
	BSpline 112 117
	(
		(0.3679 0.0066 3.2525)
		(0.3549 0.0064 3.2525)
		(0.3358 0.005 3.2525)
		(0.3111 0.0019 3.2525)
		(0.2814 -0.0031 3.2525)
		(0.2474 -0.0104 3.2525)
		(0.2101 -0.0198 3.2525)
		(0.1702 -0.0308 3.2525)
		(0.1288 -0.0425 3.2525)
		(0.0869 -0.0525 3.2525)
		(0.0453 -0.0571 3.2525)
		(0.0053 -0.056 3.2525)
	)
	BSpline 129 128
	(
		(0.0038 0.0491 3.5861)
		(0.0413 0.0513 3.5861)
		(0.0802 0.0506 3.5861)
		(0.1197 0.0455 3.5861)
		(0.1587 0.0381 3.5861)
		(0.1963 0.0309 3.5861)
		(0.2314 0.0244 3.5861)
		(0.2634 0.0187 3.5861)
		(0.2913 0.0137 3.5861)
		(0.3145 0.0092 3.5861)
		(0.3324 0.0053 3.5861)
		(0.3446 0.0029 3.5861)
	)
	BSpline 130 129
	(
		(-0.0632 0.0394 3.5861)
	)
	BSpline 131 130
	(
		(-0.1442 0.0084 3.5861)
		(-0.1321 0.0167 3.5861)
		(-0.1142 0.0248 3.5861)
	)
	BSpline 132 131
	(
		(-0.114 -0.0224 3.5861)
		(-0.1319 -0.0144 3.5861)
		(-0.1441 -0.0075 3.5861)
	)
	BSpline 133 132
	(
		(-0.0628 -0.0396 3.5861)
	)
	BSpline 128 133
	(
		(0.3446 0.0022 3.5861)
		(0.3325 0.0022 3.5861)
		(0.3145 0.001 3.5861)
		(0.2914 -0.0016 3.5861)
		(0.2635 -0.0059 3.5861)
		(0.2316 -0.0124 3.5861)
		(0.1965 -0.0208 3.5861)
		(0.1591 -0.0307 3.5861)
		(0.1202 -0.0412 3.5861)
		(0.0808 -0.0501 3.5861)
		(0.0418 -0.0539 3.5861)
		(0.0043 -0.0525 3.5861)
	)
	BSpline 145 144
	(
		(0.004 0.0457 3.9197)
		(0.039 0.0475 3.9197)
		(0.0753 0.0465 3.9197)
		(0.1121 0.0414 3.9197)
		(0.1484 0.0342 3.9197)
		(0.1834 0.0271 3.9197)
		(0.2162 0.0208 3.9197)
		(0.2459 0.0152 3.9197)
		(0.2719 0.0103 3.9197)
		(0.2935 0.0058 3.9197)
		(0.3103 0.0021 3.9197)
		(0.3216 -0.0003 3.9197)
	)
	BSpline 146 145
	(
		(-0.0587 0.0373 3.9197)
	)
	BSpline 147 146
	(
		(-0.1345 0.0091 3.9197)
		(-0.1231 0.0167 3.9197)
		(-0.1064 0.0241 3.9197)
	)
	BSpline 148 147
	(
		(-0.1065 -0.0199 3.9197)
		(-0.1232 -0.0123 3.9197)
		(-0.1346 -0.0058 3.9197)
	)
	BSpline 149 148
	(
		(-0.0589 -0.0364 3.9197)
	)
	BSpline 144 149
	(
		(0.3216 -0.0009 3.9197)
		(0.3102 -0.0009 3.9197)
		(0.2935 -0.0018 3.9197)
		(0.2719 -0.004 3.9197)
		(0.2458 -0.0079 3.9197)
		(0.216 -0.0136 3.9197)
		(0.1832 -0.0212 3.9197)
		(0.1482 -0.0301 3.9197)
		(0.1118 -0.0395 3.9197)
		(0.075 -0.0475 3.9197)
		(0.0386 -0.0507 3.9197)
		(0.0036 -0.049 3.9197)
	)
	BSpline 161 160
	(
		(0.004 0.0424 4.2533)
		(0.0365 0.0437 4.2533)
		(0.0703 0.0426 4.2533)
		(0.1043 0.0376 4.2533)
		(0.138 0.0305 4.2533)
		(0.1704 0.0237 4.2533)
		(0.2008 0.0175 4.2533)
		(0.2283 0.0121 4.2533)
		(0.2524 0.0074 4.2533)
		(0.2725 0.003 4.2533)
		(0.2879 -0.0006 4.2533)
		(0.2984 -0.0029 4.2533)
	)
	BSpline 162 161
	(
		(-0.0541 0.0351 4.2533)
	)
	BSpline 163 162
	(
		(-0.1247 0.0095 4.2533)
		(-0.1141 0.0165 4.2533)
		(-0.0985 0.0232 4.2533)
	)
	BSpline 164 163
	(
		(-0.099 -0.0176 4.2533)
		(-0.1144 -0.0104 4.2533)
		(-0.1249 -0.0043 4.2533)
	)
	BSpline 165 164
	(
		(-0.055 -0.0333 4.2533)
	)
	BSpline 160 165
	(
		(0.2984 -0.0034 4.2533)
		(0.2879 -0.0033 4.2533)
		(0.2724 -0.004 4.2533)
		(0.2523 -0.0059 4.2533)
		(0.2281 -0.0092 4.2533)
		(0.2004 -0.0144 4.2533)
		(0.1699 -0.0211 4.2533)
		(0.1373 -0.0291 4.2533)
		(0.1034 -0.0376 4.2533)
		(0.0692 -0.0446 4.2533)
		(0.0354 -0.0473 4.2533)
		(0.0029 -0.0455 4.2533)
	)
	BSpline 177 176
	(
		(0.004 0.0391 4.5868)
		(0.034 0.0401 4.5868)
		(0.0651 0.0387 4.5868)
		(0.0965 0.0338 4.5868)
		(0.1275 0.0271 4.5868)
		(0.1573 0.0206 4.5868)
		(0.1852 0.0146 4.5868)
		(0.2106 0.0094 4.5868)
		(0.2328 0.0048 4.5868)
		(0.2512 0.0007 4.5868)
		(0.2654 -0.0027 4.5868)
		(0.2751 -0.0049 4.5868)
	)
	BSpline 178 177
	(
		(-0.0496 0.0327 4.5868)
	)
	BSpline 179 178
	(
		(-0.1149 0.0097 4.5868)
		(-0.1051 0.0161 4.5868)
		(-0.0906 0.0222 4.5868)
	)
	BSpline 180 179
	(
		(-0.0914 -0.0155 4.5868)
		(-0.1056 -0.0087 4.5868)
		(-0.1152 -0.003 4.5868)
	)
	BSpline 181 180
	(
		(-0.0509 -0.0303 4.5868)
	)
	BSpline 176 181
	(
		(0.2751 -0.0055 4.5868)
		(0.2654 -0.0052 4.5868)
		(0.251 -0.0058 4.5868)
		(0.2325 -0.0074 4.5868)
		(0.2102 -0.0103 4.5868)
		(0.1846 -0.0148 4.5868)
		(0.1564 -0.0207 4.5868)
		(0.1263 -0.0279 4.5868)
		(0.095 -0.0354 4.5868)
		(0.0634 -0.0417 4.5868)
		(0.0323 -0.0439 4.5868)
		(0.0024 -0.042 4.5868)
	)
	BSpline 193 192
	(
		(0.004 0.0357 4.9204)
		(0.0314 0.0364 4.9204)
		(0.0599 0.035 4.9204)
		(0.0886 0.0302 4.9204)
		(0.1169 0.0238 4.9204)
		(0.1441 0.0176 4.9204)
		(0.1697 0.012 4.9204)
		(0.1929 0.007 4.9204)
		(0.2131 0.0027 4.9204)
		(0.23 -0.0012 4.9204)
		(0.243 -0.0045 4.9204)
		(0.2518 -0.0066 4.9204)
	)
	BSpline 194 193
	(
		(-0.0452 0.0303 4.9204)
	)
	BSpline 195 194
	(
		(-0.1051 0.0098 4.9204)
		(-0.0961 0.0155 4.9204)
		(-0.0828 0.021 4.9204)
	)
	BSpline 196 195
	(
		(-0.0838 -0.0135 4.9204)
		(-0.0967 -0.0072 4.9204)
		(-0.1055 -0.0019 4.9204)
	)
	BSpline 197 196
	(
		(-0.0469 -0.0273 4.9204)
	)
	BSpline 192 197
	(
		(0.2518 -0.0071 4.9204)
		(0.2429 -0.0068 4.9204)
		(0.2298 -0.0072 4.9204)