// * * * * * * * * * * * * * * * * * * * * * * * * * * * * * * * * * * * * * //
FoamFile
{
	version     2.0;
	format      ascii;
	class       dictionary;
	object      blockMeshDict;
}
// * * * * * * * * * * * * * * * * * * * * * * * * * * * * * * * * * * * * * //
convertToMeters 1;

vertices
(
	(-1.4142   	-3   	-1.4142)		//0
	(-1.4142   	-3   	1.4142)		//1
	(1.4142   	-3   	1.4142)		//2
	(1.4142   	-3   	-1.4142)		//3
	(-2.8284   	-3   	-2.8284)		//4
	(-2.8284   	-3   	2.8284)		//5
	(2.8284   	-3   	2.8284)		//6
	(2.8284   	-3   	-2.8284)		//7
	(-1.4142   	3   	-1.4142)		//8
	(-1.4142   	3   	1.4142)		//9
	(1.4142   	3   	1.4142)		//10
	(1.4142   	3   	-1.4142)		//11
	(-2.8284   	3   	-2.8284)		//12
	(-2.8284   	3   	2.8284)		//13
	(2.8284   	3   	2.8284)		//14
	(2.8284   	3   	-2.8284)		//15
	(1.8411   	0.0223   	3.5297)		//16
	(1.0933   	1.4819   	3.8282)		//17
	(0.0077   	1.8414   	3.9992)		//18
	(-1.3005   	1.3037   	3.7654)		//19
	(-1.841   	-0.0223   	3.5297)		//20
	(-1.3138   	-1.29   	3.7613)		//21
	(-0.0077   	-1.8414   	4.0008)		//22
	(1.0795   	-1.4918   	3.8324)		//23
	(0.8392   	-0.0038   	3.9053)		//24
	(0.0   	0.0   	4.0)		//25
	(-0.9629   	-0.0717   	3.8678)		//26
	(1.9954   	0.0407   	5.5245)		//27
	(1.215   	1.5641   	5.5245)		//28
	(0.0818   	1.9394   	5.5245)		//29
	(-1.2836   	1.3782   	5.5245)		//30
	(-1.8478   	-0.0058   	5.5245)		//31
	(-1.2975   	-1.329   	5.5245)		//32
	(0.0658   	-1.9045   	5.5245)		//33
	(1.2005   	-1.5396   	5.5245)		//34
	(0.9497   	0.0135   	5.5245)		//35
	(0.0738   	0.0174   	5.5245)		//36
	(-0.9312   	-0.0575   	5.5245)		//37
	(2.2218   	0.0601   	8.1823)		//38
	(1.3795   	1.7042   	8.1823)		//39
	(0.1566   	2.1093   	8.1823)		//40
	(-1.317   	1.5036   	8.1823)		//41
	(-1.9259   	0.0099   	8.1823)		//42
	(-1.332   	-1.4181   	8.1823)		//43
	(0.1393   	-2.0393   	8.1823)		//44
	(1.3639   	-1.6454   	8.1823)		//45
	(1.0932   	0.0307   	8.1823)		//46
	(0.1479   	0.035   	8.1823)		//47
	(-0.9367   	-0.0458   	8.1823)		//48
	(2.4622   	0.5824   	11.726)		//49
	(1.6243   	0.6768   	11.726)		//50
	(0.2593   	0.7817   	11.726)		//51
	(-1.1132   	0.6206   	11.726)		//52
	(-1.9738   	-0.2051   	11.726)		//53
	(-1.2678   	-1.0863   	11.726)		//54
	(-0.0584   	-0.9702   	11.726)		//55
	(1.1755   	-0.0727   	11.726)		//56
	(1.2474   	0.3168   	11.726)		//57
	(0.1004   	-0.0943   	11.726)		//58
	(-0.8988   	-0.2218   	11.726)		//59
	(2.551   	0.497   	15.565)		//60
	(1.7092   	0.5714   	15.565)		//61
	(0.3366   	0.6412   	15.565)		//62
	(-1.3418   	0.3836   	15.565)		//63
	(-1.9993   	-0.4374   	15.565)		//64
	(-1.3226   	-0.9925   	15.565)		//65
	(0.2436   	-0.7209   	15.565)		//66
	(1.5012   	0.1149   	15.565)		//67
	(1.3049   	0.2605   	15.565)		//68
	(0.2901   	-0.0398   	15.565)		//69
	(-0.8992   	-0.3001   	15.565)		//70
	(2.4278   	0.3851   	19.9947)		//71
	(1.623   	0.4741   	19.9947)		//72
	(0.3097   	0.5686   	19.9947)		//73
	(-1.3055   	0.3602   	19.9947)		//74
	(-1.9582   	-0.4001   	19.9947)		//75
	(-1.3244   	-0.9412   	19.9947)		//76
	(0.184   	-0.7186   	19.9947)		//77
	(1.4113   	0.0469   	19.9947)		//78
	(1.2272   	0.1885   	19.9947)		//79
	(0.2468   	-0.075   	19.9947)		//80
	(-0.8995   	-0.2972   	19.9947)		//81
	(2.2824   	0.2935   	24.129)		//82
	(1.5204   	0.3769   	24.129)		//83
	(0.2781   	0.451   	24.129)		//84
	(-1.2577   	0.2423   	24.129)		//85
	(-1.9098   	-0.3696   	24.129)		//86
	(-1.3329   	-0.7939   	24.129)		//87
	(0.1073   	-0.607   	24.129)		//88
	(1.2996   	0.0429   	24.129)		//89
	(1.1321   	0.1494   	24.129)		//90
	(0.1927   	-0.078   	24.129)		//91
	(-0.9019   	-0.2773   	24.129)		//92
	(2.1233   	0.2078   	27.968)		//93
	(1.4038   	0.2998   	27.968)		//94
	(0.2297   	0.3912   	27.968)		//95
	(-1.2216   	0.1785   	27.968)		//96
	(-1.8567   	-0.3411   	27.968)		//97
	(-1.3321   	-0.6557   	27.968)		//98
	(0.0344   	-0.5064   	27.968)		//99
	(1.1816   	0.0392   	27.968)		//100
	(1.0281   	0.1203   	27.968)		//101
	(0.1321   	-0.0576   	27.968)		//102
	(-0.9093   	-0.2133   	27.968)		//103
	(1.9246   	0.1138   	32.3977)		//104
	(1.2572   	0.2151   	32.3977)		//105
	(0.1668   	0.3257   	32.3977)		//106
	(-1.1879   	0.1569   	32.3977)		//107
	(-1.7905   	-0.3097   	32.3977)		//108
	(-1.3102   	-0.606   	32.3977)		//109
	(-0.0355   	-0.4966   	32.3977)		//110
	(1.0443   	-0.0198   	32.3977)		//111
	(0.9035   	0.0581   	32.3977)		//112
	(0.0657   	-0.0854   	32.3977)		//113
	(-0.9067   	-0.2071   	32.3977)		//114
	(1.7582   	0.0436   	36.2367)		//115
	(1.1338   	0.1514   	36.2367)		//116
	(0.113   	0.2731   	36.2367)		//117
	(-1.1595   	0.1229   	36.2367)		//118
	(-1.735   	-0.2863   	36.2367)		//119
	(-1.2982   	-0.4841   	36.2367)		//120
	(-0.1012   	-0.3954   	36.2367)		//121
	(0.9292   	-0.0584   	36.2367)		//122
	(0.7978   	0.0241   	36.2367)		//123
	(0.0059   	-0.0611   	36.2367)		//124
	(-0.9084   	-0.159   	36.2367)		//125
	(1.5772   	-0.0242   	40.371)		//126
	(0.9992   	0.0879   	40.371)		//127
	(0.0531   	0.2206   	40.371)		//128
	(-1.1321   	0.105   	40.371)		//129
	(-1.6747   	-0.2637   	40.371)		//130
	(-1.2729   	-0.4533   	40.371)		//131
	(-0.159   	-0.3935   	40.371)		//132
	(0.805   	-0.1029   	40.371)		//133
	(0.6845   	-0.0235   	40.371)		//134
	(-0.0529   	-0.0865   	40.371)		//135
	(-0.9044   	-0.1598   	40.371)		//136
	(1.3944   	-0.0802   	44.5053)		//137
	(0.8626   	0.029   	44.5053)		//138
	(-0.0088   	0.1637   	44.5053)		//139
	(-1.1048   	0.0617   	44.5053)		//140
	(-1.6138   	-0.2451   	44.5053)		//141
	(-1.2488   	-0.3731   	44.5053)		//142
	(-0.2189   	-0.3366   	44.5053)		//143
	(0.6805   	-0.1533   	44.5053)		//144
	(0.5698   	-0.0653   	44.5053)		//145
	(-0.1139   	-0.0864   	44.5053)		//146
	(-0.9017   	-0.1384   	44.5053)		//147
	(1.21   	-0.1198   	48.6397)		//148
	(0.7235   	-0.0128   	48.6397)		//149
	(-0.0743   	0.1222   	48.6397)		//150
	(-1.0812   	0.0427   	48.6397)		//151
	(-1.5523   	-0.2318   	48.6397)		//152
	(-1.2192   	-0.3535   	48.6397)		//153
	(-0.2736   	-0.3335   	48.6397)		//154
	(0.554   	-0.1778   	48.6397)		//155
	(0.4536   	-0.0955   	48.6397)		//156
	(-0.1739   	-0.1057   	48.6397)		//157
	(-0.8976   	-0.143   	48.6397)		//158
	(1.0382   	-0.1513   	52.4787)		//159
	(0.5936   	-0.0474   	52.4787)		//160
	(-0.1362   	0.0857   	52.4787)		//161
	(-1.06   	0.0247   	52.4787)		//162
	(-1.495   	-0.2213   	52.4787)		//163
	(-1.1911   	-0.3368   	52.4787)		//164
	(-0.3242   	-0.3296   	52.4787)		//165
	(0.4363   	-0.1967   	52.4787)		//166
	(0.3453   	-0.12   	52.4787)		//167
	(-0.2302   	-0.122   	52.4787)		//168
	(-0.8939   	-0.1477   	52.4787)		//169
	(0.8793   	-0.1768   	56.0224)		//170
	(0.4731   	-0.0767   	56.0224)		//171
	(-0.1939   	0.0534   	56.0224)		//172
	(-1.0408   	0.0077   	56.0224)		//173
	(-1.4421   	-0.2129   	56.0224)		//174
	(-1.1649   	-0.322   	56.0224)		//175
	(-0.3707   	-0.325   	56.0224)		//176
	(0.3274   	-0.2116   	56.0224)		//177
	(0.2449   	-0.1405   	56.0224)		//178
	(-0.2823   	-0.1358   	56.0224)		//179
	(-0.8905   	-0.152   	56.0224)		//180
	(0.6889   	-0.194   	58.9755)		//181
	(0.328   	-0.1015   	58.9755)		//182
	(-0.2649   	0.0197   	58.9755)		//183
	(-1.0195   	-0.014   	58.9755)		//184
	(-1.3786   	-0.2071   	58.9755)		//185
	(-1.1327   	-0.3066   	58.9755)		//186
	(-0.4255   	-0.3157   	58.9755)		//187
	(0.1971   	-0.2205   	58.9755)		//188
	(0.1242   	-0.1565   	58.9755)		//189
	(-0.3452   	-0.148   	58.9755)		//190
	(-0.887   	-0.1575   	58.9755)		//191
	(0.2025   	-0.2019   	61.6333)		//192
	(-0.0449   	-0.1373   	61.6333)		//193
	(-0.4514   	-0.0522   	61.6333)		//194
	(-0.9694   	-0.073   	61.6333)		//195
	(-1.2165   	-0.2045   	61.6333)		//196
	(-1.048   	-0.2735   	61.6333)		//197
	(-0.5627   	-0.282   	61.6333)		//198
	(-0.1351   	-0.2186   	61.6333)		//199
	(-0.185   	-0.1744   	61.6333)		//200
	(-0.5071   	-0.1671   	61.6333)		//201
	(-0.8789   	-0.1719   	61.6333)		//202
	(-3.9774   	0.0223   	-0.1704)		//203
	(-3.862   	1.4819   	-0.9673)		//204
	(-3.4673   	1.8414   	-1.9929)		//205
	(-2.6107   	1.3037   	-3.009)		//206
	(-2.1363   	-0.0223   	-3.3592)		//207
	(-2.6005   	-1.29   	-3.0184)		//208
	(-3.4609   	-1.8414   	-2.0071)		//209
	(-3.8587   	-1.4918   	-0.9813)		//210
	(-3.8017   	-0.0038   	-1.2259)		//211
	(-3.4641   	0.0   	-2.0)		//212
	(-2.8681   	-0.0717   	-2.7678)		//213
	(-5.7821   	0.0407   	-1.0342)		//214
	(-5.3919   	1.5641   	-1.71)		//215
	(-4.8253   	1.9394   	-2.6914)		//216
	(-4.1426   	1.3782   	-3.8739)		//217
	(-3.8605   	-0.0058   	-4.3625)		//218
	(-4.1356   	-1.329   	-3.8859)		//219
	(-4.8173   	-1.9045   	-2.7053)		//220
	(-5.3846   	-1.5396   	-1.7226)		//221
	(-5.2592   	0.0135   	-1.9398)		//222
	(-4.8213   	0.0174   	-2.6983)		//223
	(-4.3187   	-0.0575   	-3.5687)		//224
	(-8.197   	0.0601   	-2.167)		//225
	(-7.7758   	1.7042   	-2.8965)		//226
	(-7.1644   	2.1093   	-3.9555)		//227
	(-6.4276   	1.5036   	-5.2317)		//228
	(-6.1231   	0.0099   	-5.759)		//229
	(-6.4201   	-1.4181   	-5.2447)		//230
	(-7.1557   	-2.0393   	-3.9705)		//231
	(-7.768   	-1.6454   	-2.91)		//232
	(-7.6327   	0.0307   	-3.1445)		//233
	(-7.1601   	0.035   	-3.963)		//234
	(-6.6177   	-0.0458   	-4.9024)		//235
	(-11.3861   	0.5824   	-3.7307)		//236
	(-10.9672   	0.6768   	-4.4563)		//237
	(-10.2847   	0.7817   	-5.6384)		//238
	(-9.5984   	0.6206   	-6.8271)		//239
	(-9.1681   	-0.2051   	-7.5724)		//240
	(-9.5211   	-1.0863   	-6.9609)		//241
	(-10.1258   	-0.9702   	-5.9136)		//242
	(-10.7428   	-0.0727   	-4.845)		//243
	(-10.7787   	0.3168   	-4.7827)		//244
	(-10.2052   	-0.0943   	-5.776)		//245
	(-9.7056   	-0.2218   	-6.6414)		//246
	(-14.7552   	0.497   	-5.5733)		//247
	(-14.3343   	0.5714   	-6.3023)		//248
	(-13.648   	0.6412   	-7.491)		//249
	(-12.8088   	0.3836   	-8.9445)		//250
	(-12.48   	-0.4374   	-9.5139)		//251
	(-12.8184   	-0.9925   	-8.9279)		//252
	(-13.6015   	-0.7209   	-7.5715)		//253
	(-14.2303   	0.1149   	-6.4824)		//254
	(-14.1321   	0.2605   	-6.6524)		//255
	(-13.6247   	-0.0398   	-7.5313)		//256
	(-13.0301   	-0.3001   	-8.5612)		//257
	(-18.5298   	0.3851   	-7.8948)		//258
	(-18.1274   	0.4741   	-8.5918)		//259
	(-17.4708   	0.5686   	-9.7291)		//260
	(-16.6632   	0.3602   	-11.1279)		//261
	(-16.3368   	-0.4001   	-11.6932)		//262
	(-16.6537   	-0.9412   	-11.1443)		//263
	(-17.4079   	-0.7186   	-9.838)		//264
	(-18.0216   	0.0469   	-8.7751)		//265
	(-17.9295   	0.1885   	-8.9346)		//266
	(-17.4393   	-0.075   	-9.7836)		//267
	(-16.8661   	-0.2972   	-10.7764)		//268
	(-22.0375   	0.2935   	-10.0879)		//269
	(-21.6565   	0.3769   	-10.7478)		//270
	(-21.0354   	0.451   	-11.8237)		//271
	(-20.2675   	0.2423   	-13.1537)		//272
	(-19.9414   	-0.3696   	-13.7184)		//273
	(-20.2299   	-0.7939   	-13.2188)		//274
	(-20.95   	-0.607   	-11.9716)		//275
	(-21.5461   	0.0429   	-10.939)		//276
	(-21.4624   	0.1494   	-11.0841)		//277
	(-20.9927   	-0.078   	-11.8976)		//278
	(-20.4454   	-0.2773   	-12.8455)		//279
	(-25.2826   	0.2078   	-12.1452)		//280
	(-24.9229   	0.2998   	-12.7683)		//281
	(-24.3358   	0.3912   	-13.7851)		//282
	(-23.6102   	0.1785   	-15.0419)		//283
	(-23.2926   	-0.3411   	-15.5919)		//284
	(-23.5549   	-0.6557   	-15.1376)		//285
	(-24.2382   	-0.5064   	-13.9542)		//286
	(-24.8118   	0.0392   	-12.9607)		//287
	(-24.7351   	0.1203   	-13.0936)		//288
	(-24.287   	-0.0576   	-13.8696)		//289
	(-23.7664   	-0.2133   	-14.7714)		//290
	(-29.0195   	0.1138   	-14.5321)		//291
	(-28.6858   	0.2151   	-15.1101)		//292
	(-28.1406   	0.3257   	-16.0544)		//293
	(-27.4633   	0.1569   	-17.2276)		//294
	(-27.162   	-0.3097   	-17.7495)		//295
	(-27.4021   	-0.606   	-17.3335)		//296
	(-28.0395   	-0.4966   	-16.2296)		//297
	(-28.5794   	-0.0198   	-15.2945)		//298
	(-28.509   	0.0581   	-15.4164)		//299
	(-28.0901   	-0.0854   	-16.142)		//300
	(-27.6039   	-0.2071   	-16.9841)		//301
	(-32.261   	0.0436   	-16.5957)		//302
	(-31.9488   	0.1514   	-17.1365)		//303
	(-31.4384   	0.2731   	-18.0205)		//304
	(-30.8022   	0.1229   	-19.1225)		//305
	(-30.5144   	-0.2863   	-19.6209)		//306
	(-30.7328   	-0.4841   	-19.2426)		//307
	(-31.3313   	-0.3954   	-18.206)		//308
	(-31.8465   	-0.0584   	-17.3136)		//309
	(-31.7808   	0.0241   	-17.4274)		//310
	(-31.3849   	-0.0611   	-18.1132)		//311
	(-30.9277   	-0.159   	-18.905)		//312
	(-35.7509   	-0.0242   	-18.8196)		//313
	(-35.4619   	0.0879   	-19.3202)		//314
	(-34.9889   	0.2206   	-20.1395)		//315
	(-34.3963   	0.105   	-21.1659)		//316
	(-34.125   	-0.2637   	-21.6358)		//317
	(-34.3259   	-0.4533   	-21.2879)		//318
	(-34.8828   	-0.3935   	-20.3232)		//319
	(-35.3648   	-0.1029   	-19.4883)		//320
	(-35.3046   	-0.0235   	-19.5927)		//321
	(-34.9358   	-0.0865   	-20.2314)		//322
	(-34.5101   	-0.1598   	-20.9687)		//323
	(-39.2399   	-0.0802   	-21.0451)		//324
	(-38.974   	0.029   	-21.5056)		//325
	(-38.5383   	0.1637   	-22.2603)		//326
	(-37.9903   	0.0617   	-23.2094)		//327
	(-37.7358   	-0.2451   	-23.6502)		//328
	(-37.9183   	-0.3731   	-23.3341)		//329
	(-38.4333   	-0.3366   	-22.4422)		//330
	(-38.883   	-0.1533   	-21.6633)		//331
	(-38.8276   	-0.0653   	-21.7591)		//332
	(-38.4858   	-0.0864   	-22.3512)		//333
	(-38.0919   	-0.1384   	-23.0335)		//334
	(-42.7282   	-0.1198   	-23.272)		//335
	(-42.485   	-0.0128   	-23.6933)		//336
	(-42.0861   	0.1222   	-24.3842)		//337
	(-41.5826   	0.0427   	-25.2562)		//338
	(-41.3471   	-0.2318   	-25.6642)		//339
	(-41.5136   	-0.3535   	-25.3757)		//340
	(-41.9864   	-0.3335   	-24.5568)		//341
	(-42.4002   	-0.1778   	-23.8401)		//342
	(-42.35   	-0.0955   	-23.927)		//343
	(-42.0362   	-0.1057   	-24.4705)		//344
	(-41.6744   	-0.143   	-25.0972)		//345
	(-45.967   	-0.1513   	-25.3402)		//346
	(-45.7447   	-0.0474   	-25.7253)		//347
	(-45.3798   	0.0857   	-26.3573)		//348
	(-44.9179   	0.0247   	-27.1573)		//349
	(-44.7004   	-0.2213   	-27.5341)		//350
	(-44.8523   	-0.3368   	-27.2709)		//351
	(-45.2858   	-0.3296   	-26.5201)		//352
	(-45.666   	-0.1967   	-25.8615)		//353
	(-45.6205   	-0.12   	-25.9404)		//354
	(-45.3328   	-0.122   	-26.4387)		//355
	(-45.001   	-0.1477   	-27.0134)		//356
	(-48.9565   	-0.1768   	-27.2497)		//357
	(-48.7534   	-0.0767   	-27.6015)		//358
	(-48.4199   	0.0534   	-28.1791)		//359
	(-47.9964   	0.0077   	-28.9126)		//360
	(-47.7958   	-0.2129   	-29.2601)		//361
	(-47.9344   	-0.322   	-29.02)		//362
	(-48.3315   	-0.325   	-28.3322)		//363
	(-48.6805   	-0.2116   	-27.7277)		//364
	(-48.6392   	-0.1405   	-27.7992)		//365
	(-48.3757   	-0.1358   	-28.2557)		//366
	(-48.0716   	-0.152   	-28.7824)		//367
	(-51.4187   	-0.194   	-28.8911)		//368
	(-51.2383   	-0.1015   	-29.2037)		//369
	(-50.9418   	0.0197   	-29.7172)		//370
	(-50.5645   	-0.014   	-30.3707)		//371
	(-50.385   	-0.2071   	-30.6817)		//372
	(-50.5079   	-0.3066   	-30.4687)		//373
	(-50.8615   	-0.3157   	-29.8562)		//374
	(-51.1728   	-0.2205   	-29.3171)		//375
	(-51.1364   	-0.1565   	-29.3801)		//376
	(-50.9017   	-0.148   	-29.7867)		//377
	(-50.6308   	-0.1575   	-30.2559)		//378
	(-53.4773   	-0.2019   	-30.6413)		//379
	(-53.3536   	-0.1373   	-30.8555)		//380
	(-53.1503   	-0.0522   	-31.2076)		//381
	(-52.8913   	-0.073   	-31.6562)		//382
	(-52.7678   	-0.2045   	-31.8702)		//383
	(-52.852   	-0.2735   	-31.7242)		//384
	(-53.0947   	-0.282   	-31.304)		//385
	(-53.3085   	-0.2186   	-30.9337)		//386
	(-53.2835   	-0.1744   	-30.9768)		//387
	(-53.1225   	-0.1671   	-31.2558)		//388
	(-52.9366   	-0.1719   	-31.5778)		//389
	(2.1363   	0.0223   	-3.3593)		//390
	(2.7687   	1.4819   	-2.8609)		//391
	(3.4596   	1.8414   	-2.0063)		//392
	(3.9112   	1.3037   	-0.7564)		//393
	(3.9773   	-0.0223   	-0.1705)		//394
	(3.9143   	-1.29   	-0.7429)		//395
	(3.4686   	-1.8414   	-1.9937)		//396
	(2.7792   	-1.4918   	-2.8511)		//397
	(2.9625   	-0.0038   	-2.6794)		//398
	(3.4641   	0.0   	-2.0)		//399
	(3.831   	-0.0717   	-1.1)		//400
	(3.7867   	0.0407   	-4.4903)		//401
	(4.1769   	1.5641   	-3.8145)		//402
	(4.7435   	1.9394   	-2.8331)		//403
	(5.4262   	1.3782   	-1.6506)		//404
	(5.7083   	-0.0058   	-1.162)		//405
	(5.4331   	-1.329   	-1.6386)		//406
	(4.7515   	-1.9045   	-2.8192)		//407
	(4.1841   	-1.5396   	-3.8019)		//408
	(4.3095   	0.0135   	-3.5847)		//409
	(4.7475   	0.0174   	-2.8262)		//410
	(5.25   	-0.0575   	-1.9558)		//411
	(5.9752   	0.0601   	-6.0153)		//412
	(6.3963   	1.7042   	-5.2858)		//413
	(7.0078   	2.1093   	-4.2268)		//414
	(7.7446   	1.5036   	-2.9506)		//415
	(8.049   	0.0099   	-2.4233)		//416
	(7.7521   	-1.4181   	-2.9376)		//417
	(7.0164   	-2.0393   	-4.2118)		//418
	(6.4041   	-1.6454   	-5.2723)		//419
	(6.5395   	0.0307   	-5.0378)		//420
	(7.0121   	0.035   	-4.2193)		//421
	(7.5545   	-0.0458   	-3.2799)		//422
	(8.9239   	0.5824   	-7.9953)		//423
	(9.3429   	0.6768   	-7.2697)		//424
	(10.0254   	0.7817   	-6.0876)		//425
	(10.7116   	0.6206   	-4.8989)		//426
	(11.1419   	-0.2051   	-4.1536)		//427
	(10.7889   	-1.0863   	-4.7651)		//428
	(10.1842   	-0.9702   	-5.8124)		//429
	(9.5673   	-0.0727   	-6.881)		//430
	(9.5313   	0.3168   	-6.9433)		//431
	(10.1048   	-0.0943   	-5.95)		//432
	(10.6044   	-0.2218   	-5.0846)		//433
	(12.2042   	0.497   	-9.9917)		//434
	(12.6251   	0.5714   	-9.2627)		//435
	(13.3114   	0.6412   	-8.074)		//436
	(14.1506   	0.3836   	-6.6205)		//437
	(14.4793   	-0.4374   	-6.0511)		//438
	(14.141   	-0.9925   	-6.6371)		//439
	(13.3579   	-0.7209   	-7.9935)		//440
	(12.7291   	0.1149   	-9.0826)		//441
	(12.8272   	0.2605   	-8.9126)		//442
	(13.3346   	-0.0398   	-8.0337)		//443
	(13.9293   	-0.3001   	-7.0038)		//444
	(16.102   	0.3851   	-12.0999)		//445
	(16.5044   	0.4741   	-11.4029)		//446
	(17.1611   	0.5686   	-10.2656)		//447
	(17.9687   	0.3602   	-8.8668)		//448
	(18.295   	-0.4001   	-8.3015)		//449
	(17.9781   	-0.9412   	-8.8504)		//450
	(17.2239   	-0.7186   	-10.1567)		//451
	(16.6103   	0.0469   	-11.2196)		//452
	(16.7023   	0.1885   	-11.0601)		//453
	(17.1925   	-0.075   	-10.2111)		//454
	(17.7657   	-0.2972   	-9.2183)		//455
	(19.7551   	0.2935   	-14.0411)		//456
	(20.1361   	0.3769   	-13.3812)		//457
	(20.7573   	0.451   	-12.3053)		//458
	(21.5252   	0.2423   	-10.9753)		//459
	(21.8512   	-0.3696   	-10.4106)		//460
	(21.5628   	-0.7939   	-10.9102)		//461
	(20.8427   	-0.607   	-12.1574)		//462
	(20.2465   	0.0429   	-13.19)		//463
	(20.3303   	0.1494   	-13.0449)		//464
	(20.8   	-0.078   	-12.2314)		//465
	(21.3473   	-0.2773   	-11.2835)		//466
	(23.1593   	0.2078   	-15.8228)		//467
	(23.5191   	0.2998   	-15.1997)		//468
	(24.1061   	0.3912   	-14.1829)		//469
	(24.8318   	0.1785   	-12.9261)		//470
	(25.1493   	-0.3411   	-12.3761)		//471
	(24.887   	-0.6557   	-12.8304)		//472
	(24.2038   	-0.5064   	-14.0138)		//473
	(23.6302   	0.0392   	-15.0073)		//474
	(23.7069   	0.1203   	-14.8744)		//475
	(24.155   	-0.0576   	-14.0984)		//476
	(24.6756   	-0.2133   	-13.1966)		//477
	(27.0949   	0.1138   	-17.8656)		//478
	(27.4286   	0.2151   	-17.2876)		//479
	(27.9738   	0.3257   	-16.3433)		//480
	(28.6512   	0.1569   	-15.1701)		//481
	(28.9525   	-0.3097   	-14.6482)		//482
	(28.7123   	-0.606   	-15.0642)		//483
	(28.075   	-0.4966   	-16.1681)		//484
	(27.5351   	-0.0198   	-17.1032)		//485
	(27.6055   	0.0581   	-16.9813)		//486
	(28.0244   	-0.0854   	-16.2557)		//487
	(28.5106   	-0.2071   	-15.4136)		//488
	(30.5028   	0.0436   	-19.641)		//489
	(30.815   	0.1514   	-19.1002)		//490
	(31.3254   	0.2731   	-18.2162)		//491
	(31.9617   	0.1229   	-17.1142)		//492
	(32.2494   	-0.2863   	-16.6158)		//493
	(32.031   	-0.4841   	-16.9941)		//494
	(31.4325   	-0.3954   	-18.0307)		//495
	(30.9173   	-0.0584   	-18.9231)		//496
	(30.983   	0.0241   	-18.8093)		//497
	(31.379   	-0.0611   	-18.1235)		//498
	(31.8361   	-0.159   	-17.3317)		//499
	(34.1737   	-0.0242   	-21.5514)		//500
	(34.4627   	0.0879   	-21.0508)		//501
	(34.9358   	0.2206   	-20.2315)		//502
	(35.5284   	0.105   	-19.2051)		//503
	(35.7997   	-0.2637   	-18.7352)		//504
	(35.5988   	-0.4533   	-19.0831)		//505
	(35.0418   	-0.3935   	-20.0478)		//506
	(34.5598   	-0.1029   	-20.8827)		//507
	(34.62   	-0.0235   	-20.7783)		//508
	(34.9888   	-0.0865   	-20.1396)		//509
	(35.4145   	-0.1598   	-19.4023)		//510
	(37.8455   	-0.0802   	-23.4602)		//511
	(38.1114   	0.029   	-22.9997)		//512
	(38.5471   	0.1637   	-22.245)		//513
	(39.0951   	0.0617   	-21.2959)		//514
	(39.3496   	-0.2451   	-20.8551)		//515
	(39.1671   	-0.3731   	-21.1712)		//516
	(38.6522   	-0.3366   	-22.0631)		//517
	(38.2025   	-0.1533   	-22.842)		//518
	(38.2578   	-0.0653   	-22.7462)		//519
	(38.5996   	-0.0864   	-22.1541)		//520
	(38.9935   	-0.1384   	-21.4718)		//521
	(41.5182   	-0.1198   	-25.3677)		//522
	(41.7615   	-0.0128   	-24.9464)		//523
	(42.1604   	0.1222   	-24.2555)		//524
	(42.6638   	0.0427   	-23.3835)		//525
	(42.8994   	-0.2318   	-22.9755)		//526
	(42.7328   	-0.3535   	-23.264)		//527
	(42.26   	-0.3335   	-24.0829)		//528
	(41.8462   	-0.1778   	-24.7996)		//529
	(41.8964   	-0.0955   	-24.7127)		//530
	(42.2102   	-0.1057   	-24.1692)		//531
	(42.572   	-0.143   	-23.5425)		//532
	(44.9288   	-0.1513   	-27.1385)		//533
	(45.1511   	-0.0474   	-26.7534)		//534
	(45.516   	0.0857   	-26.1214)		//535
	(45.9779   	0.0247   	-25.3214)		//536
	(46.1954   	-0.2213   	-24.9446)		//537
	(46.0434   	-0.3368   	-25.2078)		//538
	(45.61   	-0.3296   	-25.9586)		//539
	(45.2297   	-0.1967   	-26.6172)		//540
	(45.2753   	-0.12   	-26.5383)		//541
	(45.563   	-0.122   	-26.04)		//542
	(45.8948   	-0.1477   	-25.4653)		//543
	(48.0772   	-0.1768   	-28.7727)		//544
	(48.2803   	-0.0767   	-28.4209)		//545
	(48.6138   	0.0534   	-27.8433)		//546
	(49.0372   	0.0077   	-27.1098)		//547
	(49.2379   	-0.2129   	-26.7623)		//548
	(49.0993   	-0.322   	-27.0024)		//549
	(48.7022   	-0.325   	-27.6902)		//550
	(48.3531   	-0.2116   	-28.2947)		//551
	(48.3944   	-0.1405   	-28.2232)		//552
	(48.658   	-0.1358   	-27.7667)		//553
	(48.9621   	-0.152   	-27.24)		//554
	(50.7298   	-0.194   	-30.0844)		//555
	(50.9103   	-0.1015   	-29.7718)		//556
	(51.2067   	0.0197   	-29.2583)		//557
	(51.584   	-0.014   	-28.6048)		//558
	(51.7636   	-0.2071   	-28.2938)		//559
	(51.6406   	-0.3066   	-28.5068)		//560
	(51.287   	-0.3157   	-29.1193)		//561
	(50.9757   	-0.2205   	-29.6584)		//562
	(51.0122   	-0.1565   	-29.5954)		//563
	(51.2469   	-0.148   	-29.1888)		//564
	(51.5178   	-0.1575   	-28.7196)		//565
	(53.2748   	-0.2019   	-30.992)		//566
	(53.3985   	-0.1373   	-30.7778)		//567
	(53.6017   	-0.0522   	-30.4257)		//568
	(53.8607   	-0.073   	-29.9771)		//569
	(53.9843   	-0.2045   	-29.7631)		//570
	(53.9   	-0.2735   	-29.9091)		//571
	(53.6574   	-0.282   	-30.3293)		//572
	(53.4436   	-0.2186   	-30.6996)		//573
	(53.4685   	-0.1744   	-30.6565)		//574
	(53.6295   	-0.1671   	-30.3775)		//575
	(53.8155   	-0.1719   	-30.0555)		//576
);

blocks
(
	hex (0 1 2 3 8 9 10 11) bladeZone (6 6 12) simpleGrading (1 1 1)
	hex (4 5 1 0 12 13 9 8) bladeZone (6 4 12) simpleGrading (1 1 1)
	hex (5 6 2 1 13 14 10 9) bladeZone (6 4 12) simpleGrading (1 1 1)
	hex (6 7 3 2 14 15 11 10) bladeZone (6 4 12) simpleGrading (1 1 1)
	hex (7 4 0 3 15 12 8 11) bladeZone (6 4 12) simpleGrading (1 1 1)
	hex (16 17 24 23 27 28 35 34) bladeZone (4 4 6) simpleGrading (1 1 1)
	hex (17 18 25 24 28 29 36 35) bladeZone (4 4 6) simpleGrading (1 1 1)
	hex (18 19 26 25 29 30 37 36) bladeZone (4 4 6) simpleGrading (1 1 1)
	hex (19 20 21 26 30 31 32 37) bladeZone (4 4 6) simpleGrading (1 1 1)
	hex (25 26 21 22 36 37 32 33) bladeZone (4 4 6) simpleGrading (1 1 1)
	hex (24 25 22 23 35 36 33 34) bladeZone (4 4 6) simpleGrading (1 1 1)
	hex (27 28 35 34 38 39 46 45) bladeZone (4 4 6) simpleGrading (1 1 1)
	hex (28 29 36 35 39 40 47 46) bladeZone (4 4 6) simpleGrading (1 1 1)
	hex (29 30 37 36 40 41 48 47) bladeZone (4 4 6) simpleGrading (1 1 1)
	hex (30 31 32 37 41 42 43 48) bladeZone (4 4 6) simpleGrading (1 1 1)
	hex (36 37 32 33 47 48 43 44) bladeZone (4 4 6) simpleGrading (1 1 1)
	hex (35 36 33 34 46 47 44 45) bladeZone (4 4 6) simpleGrading (1 1 1)
	hex (38 39 46 45 49 50 57 56) bladeZone (4 4 6) simpleGrading (1 1 1)
	hex (39 40 47 46 50 51 58 57) bladeZone (4 4 6) simpleGrading (1 1 1)
	hex (40 41 48 47 51 52 59 58) bladeZone (4 4 6) simpleGrading (1 1 1)
	hex (41 42 43 48 52 53 54 59) bladeZone (4 4 6) simpleGrading (1 1 1)
	hex (47 48 43 44 58 59 54 55) bladeZone (4 4 6) simpleGrading (1 1 1)
	hex (46 47 44 45 57 58 55 56) bladeZone (4 4 6) simpleGrading (1 1 1)
	hex (49 50 57 56 60 61 68 67) bladeZone (4 4 6) simpleGrading (1 1 1)
	hex (50 51 58 57 61 62 69 68) bladeZone (4 4 6) simpleGrading (1 1 1)
	hex (51 52 59 58 62 63 70 69) bladeZone (4 4 6) simpleGrading (1 1 1)
	hex (52 53 54 59 63 64 65 70) bladeZone (4 4 6) simpleGrading (1 1 1)
	hex (58 59 54 55 69 70 65 66) bladeZone (4 4 6) simpleGrading (1 1 1)
	hex (57 58 55 56 68 69 66 67) bladeZone (4 4 6) simpleGrading (1 1 1)
	hex (60 61 68 67 71 72 79 78) bladeZone (4 4 6) simpleGrading (1 1 1)
	hex (61 62 69 68 72 73 80 79) bladeZone (4 4 6) simpleGrading (1 1 1)
	hex (62 63 70 69 73 74 81 80) bladeZone (4 4 6) simpleGrading (1 1 1)
	hex (63 64 65 70 74 75 76 81) bladeZone (4 4 6) simpleGrading (1 1 1)
	hex (69 70 65 66 80 81 76 77) bladeZone (4 4 6) simpleGrading (1 1 1)
	hex (68 69 66 67 79 80 77 78) bladeZone (4 4 6) simpleGrading (1 1 1)
	hex (71 72 79 78 82 83 90 89) bladeZone (4 4 6) simpleGrading (1 1 1)
	hex (72 73 80 79 83 84 91 90) bladeZone (4 4 6) simpleGrading (1 1 1)
	hex (73 74 81 80 84 85 92 91) bladeZone (4 4 6) simpleGrading (1 1 1)
	hex (74 75 76 81 85 86 87 92) bladeZone (4 4 6) simpleGrading (1 1 1)
	hex (80 81 76 77 91 92 87 88) bladeZone (4 4 6) simpleGrading (1 1 1)
	hex (79 80 77 78 90 91 88 89) bladeZone (4 4 6) simpleGrading (1 1 1)
	hex (82 83 90 89 93 94 101 100) bladeZone (4 4 6) simpleGrading (1 1 1)
	hex (83 84 91 90 94 95 102 101) bladeZone (4 4 6) simpleGrading (1 1 1)
	hex (84 85 92 91 95 96 103 102) bladeZone (4 4 6) simpleGrading (1 1 1)
	hex (85 86 87 92 96 97 98 103) bladeZone (4 4 6) simpleGrading (1 1 1)
	hex (91 92 87 88 102 103 98 99) bladeZone (4 4 6) simpleGrading (1 1 1)
	hex (90 91 88 89 101 102 99 100) bladeZone (4 4 6) simpleGrading (1 1 1)
	hex (93 94 101 100 104 105 112 111) bladeZone (4 4 6) simpleGrading (1 1 1)
	hex (94 95 102 101 105 106 113 112) bladeZone (4 4 6) simpleGrading (1 1 1)
	hex (95 96 103 102 106 107 114 113) bladeZone (4 4 6) simpleGrading (1 1 1)
	hex (96 97 98 103 107 108 109 114) bladeZone (4 4 6) simpleGrading (1 1 1)
	hex (102 103 98 99 113 114 109 110) bladeZone (4 4 6) simpleGrading (1 1 1)
	hex (101 102 99 100 112 113 110 111) bladeZone (4 4 6) simpleGrading (1 1 1)
	hex (104 105 112 111 115 116 123 122) bladeZone (4 4 6) simpleGrading (1 1 1)
	hex (105 106 113 112 116 117 124 123) bladeZone (4 4 6) simpleGrading (1 1 1)
	hex (106 107 114 113 117 118 125 124) bladeZone (4 4 6) simpleGrading (1 1 1)
	hex (107 108 109 114 118 119 120 125) bladeZone (4 4 6) simpleGrading (1 1 1)
	hex (113 114 109 110 124 125 120 121) bladeZone (4 4 6) simpleGrading (1 1 1)
	hex (112 113 110 111 123 124 121 122) bladeZone (4 4 6) simpleGrading (1 1 1)
	hex (115 116 123 122 126 127 134 133) bladeZone (4 4 6) simpleGrading (1 1 1)
	hex (116 117 124 123 127 128 135 134) bladeZone (4 4 6) simpleGrading (1 1 1)
	hex (117 118 125 124 128 129 136 135) bladeZone (4 4 6) simpleGrading (1 1 1)
	hex (118 119 120 125 129 130 131 136) bladeZone (4 4 6) simpleGrading (1 1 1)
	hex (124 125 120 121 135 136 131 132) bladeZone (4 4 6) simpleGrading (1 1 1)
	hex (123 124 121 122 134 135 132 133) bladeZone (4 4 6) simpleGrading (1 1 1)
	hex (126 127 134 133 137 138 145 144) bladeZone (4 4 6) simpleGrading (1 1 1)
	hex (127 128 135 134 138 139 146 145) bladeZone (4 4 6) simpleGrading (1 1 1)
	hex (128 129 136 135 139 140 147 146) bladeZone (4 4 6) simpleGrading (1 1 1)
	hex (129 130 131 136 140 141 142 147) bladeZone (4 4 6) simpleGrading (1 1 1)
	hex (135 136 131 132 146 147 142 143) bladeZone (4 4 6) simpleGrading (1 1 1)
	hex (134 135 132 133 145 146 143 144) bladeZone (4 4 6) simpleGrading (1 1 1)
	hex (137 138 145 144 148 149 156 155) bladeZone (4 4 6) simpleGrading (1 1 1)
	hex (138 139 146 145 149 150 157 156) bladeZone (4 4 6) simpleGrading (1 1 1)
	hex (139 140 147 146 150 151 158 157) bladeZone (4 4 6) simpleGrading (1 1 1)
	hex (140 141 142 147 151 152 153 158) bladeZone (4 4 6) simpleGrading (1 1 1)
	hex (146 147 142 143 157 158 153 154) bladeZone (4 4 6) simpleGrading (1 1 1)
	hex (145 146 143 144 156 157 154 155) bladeZone (4 4 6) simpleGrading (1 1 1)
	hex (148 149 156 155 159 160 167 166) bladeZone (4 4 6) simpleGrading (1 1 1)
	hex (149 150 157 156 160 161 168 167) bladeZone (4 4 6) simpleGrading (1 1 1)
	hex (150 151 158 157 161 162 169 168) bladeZone (4 4 6) simpleGrading (1 1 1)
	hex (151 152 153 158 162 163 164 169) bladeZone (4 4 6) simpleGrading (1 1 1)
	hex (157 158 153 154 168 169 164 165) bladeZone (4 4 6) simpleGrading (1 1 1)
	hex (156 157 154 155 167 168 165 166) bladeZone (4 4 6) simpleGrading (1 1 1)
	hex (159 160 167 166 170 171 178 177) bladeZone (4 4 6) simpleGrading (1 1 1)
	hex (160 161 168 167 171 172 179 178) bladeZone (4 4 6) simpleGrading (1 1 1)
	hex (161 162 169 168 172 173 180 179) bladeZone (4 4 6) simpleGrading (1 1 1)
	hex (162 163 164 169 173 174 175 180) bladeZone (4 4 6) simpleGrading (1 1 1)
	hex (168 169 164 165 179 180 175 176) bladeZone (4 4 6) simpleGrading (1 1 1)
	hex (167 168 165 166 178 179 176 177) bladeZone (4 4 6) simpleGrading (1 1 1)
	hex (170 171 178 177 181 182 189 188) bladeZone (4 4 6) simpleGrading (1 1 1)
	hex (171 172 179 178 182 183 190 189) bladeZone (4 4 6) simpleGrading (1 1 1)
	hex (172 173 180 179 183 184 191 190) bladeZone (4 4 6) simpleGrading (1 1 1)
	hex (173 174 175 180 184 185 186 191) bladeZone (4 4 6) simpleGrading (1 1 1)
	hex (179 180 175 176 190 191 186 187) bladeZone (4 4 6) simpleGrading (1 1 1)