// * * * * * * * * * * * * * * * * * * * * * * * * * * * * * * * * * * * * * //
FoamFile
{
	version     2.0;
	format      ascii;
	class       dictionary;
	object      blockMeshDict;
}
// * * * * * * * * * * * * * * * * * * * * * * * * * * * * * * * * * * * * * //
convertToMeters 1;

vertices
(
	(0.1063   	0.0238   	0.5004)		//0
	(0.0571   	0.0928   	0.5004)		//1
	(0.0086   	0.1086   	0.5004)		//2
	(-0.0086   	0.1086   	0.5004)		//3
	(-0.0571   	0.0928   	0.5004)		//4
	(-0.1063   	0.0238   	0.5004)		//5
	(-0.109   	-0.0   	0.5004)		//6
	(-0.0571   	-0.0928   	0.5004)		//7
	(-0.0086   	-0.1086   	0.5004)		//8
	(0.0086   	-0.1086   	0.5004)		//9
	(0.0571   	-0.0928   	0.5004)		//10
	(0.109   	-0.0   	0.5004)		//11
	(0.0957   	0.0214   	0.5004)		//12
	(0.0514   	0.0835   	0.5004)		//13
	(0.0077   	0.0978   	0.5004)		//14
	(-0.0077   	0.0978   	0.5004)		//15
	(-0.0514   	0.0835   	0.5004)		//16
	(-0.0957   	0.0214   	0.5004)		//17
	(-0.0981   	-0.0   	0.5004)		//18
	(-0.0514   	-0.0835   	0.5004)		//19
	(-0.0077   	-0.0978   	0.5004)		//20
	(0.0077   	-0.0978   	0.5004)		//21
	(0.0514   	-0.0835   	0.5004)		//22
	(0.0981   	-0.0   	0.5004)		//23
	(0.4633   	0.1732   	1.251)		//24
	(0.3062   	0.1482   	1.251)		//25
	(0.1502   	0.1236   	1.251)		//26
	(0.1339   	0.1206   	1.251)		//27
	(-0.0193   	0.07   	1.251)		//28
	(-0.2059   	-0.0712   	1.251)		//29
	(-0.204   	-0.0767   	1.251)		//30
	(-0.0196   	-0.0806   	1.251)		//31
	(0.1281   	-0.0334   	1.251)		//32
	(0.1427   	-0.0254   	1.251)		//33
	(0.2805   	0.0673   	1.251)		//34
	(0.4633   	0.1685   	1.251)		//35
	(0.4577   	0.1704   	1.251)		//36
	(0.2934   	0.1403   	1.251)		//37
	(0.1481   	0.1155   	1.251)		//38
	(0.1333   	0.1128   	1.251)		//39
	(-0.0476   	0.0462   	1.251)		//40
	(-0.1938   	-0.067   	1.251)		//41
	(-0.192   	-0.072   	1.251)		//42
	(-0.0542   	-0.0752   	1.251)		//43
	(0.129   	-0.0254   	1.251)		//44
	(0.1412   	-0.0186   	1.251)		//45
	(0.31   	0.0935   	1.251)		//46
	(0.4577   	0.1683   	1.251)		//47
	(0.4589   	0.1112   	1.5845)		//48
	(0.3093   	0.1073   	1.5845)		//49
	(0.1276   	0.0972   	1.5845)		//50
	(0.1165   	0.0961   	1.5845)		//51
	(-0.0568   	0.0519   	1.5845)		//52
	(-0.2042   	-0.0439   	1.5845)		//53
	(-0.2029   	-0.0493   	1.5845)		//54
	(-0.0277   	-0.074   	1.5845)		//55
	(0.1261   	-0.0437   	1.5845)		//56
	(0.1363   	-0.0388   	1.5845)		//57
	(0.2755   	0.0321   	1.5845)		//58
	(0.459   	0.1067   	1.5845)		//59
	(0.4421   	0.1086   	1.5845)		//60
	(0.295   	0.1   	1.5845)		//61
	(0.1275   	0.0893   	1.5845)		//62
	(0.1175   	0.0884   	1.5845)		//63
	(-0.0398   	0.0483   	1.5845)		//64
	(-0.1859   	-0.0411   	1.5845)		//65
	(-0.1847   	-0.046   	1.5845)		//66
	(-0.0136   	-0.065   	1.5845)		//67
	(0.1261   	-0.0374   	1.5845)		//68
	(0.1353   	-0.033   	1.5845)		//69
	(0.3055   	0.0525   	1.5845)		//70
	(0.4421   	0.1045   	1.5845)		//71
	(0.4437   	0.0709   	1.9181)		//72
	(0.3014   	0.0757   	1.9181)		//73
	(0.1284   	0.0825   	1.9181)		//74
	(0.1178   	0.0823   	1.9181)		//75
	(-0.0499   	0.0535   	1.9181)		//76
	(-0.197   	-0.0261   	1.9181)		//77
	(-0.1962   	-0.0314   	1.9181)		//78
	(-0.0319   	-0.068   	1.9181)		//79
	(0.1163   	-0.051   	1.9181)		//80
	(0.1263   	-0.0472   	1.9181)		//81
	(0.2638   	0.0095   	1.9181)		//82
	(0.4437   	0.0666   	1.9181)		//83
	(0.4171   	0.0679   	1.9181)		//84
	(0.2867   	0.0708   	1.9181)		//85
	(0.1279   	0.075   	1.9181)		//86
	(0.1183   	0.0748   	1.9181)		//87
	(-0.0398   	0.0485   	1.9181)		//88
	(-0.1806   	-0.0236   	1.9181)		//89
	(-0.1799   	-0.0284   	1.9181)		//90
	(-0.0235   	-0.0609   	1.9181)		//91
	(0.1169   	-0.0452   	1.9181)		//92
	(0.126   	-0.0417   	1.9181)		//93
	(0.2516   	0.0105   	1.9181)		//94
	(0.417   	0.064   	1.9181)		//95
	(0.4233   	0.0458   	2.2517)		//96
	(0.2901   	0.0589   	2.2517)		//97
	(0.1262   	0.0718   	2.2517)		//98
	(0.1161   	0.0722   	2.2517)		//99
	(-0.0447   	0.0534   	2.2517)		//100
	(-0.1884   	-0.0147   	2.2517)		//101
	(-0.188   	-0.0198   	2.2517)		//102
	(-0.0338   	-0.063   	2.2517)		//103
	(0.1078   	-0.0544   	2.2517)		//104
	(0.1176   	-0.0512   	2.2517)		//105
	(0.251   	-0.0044   	2.2517)		//106
	(0.4233   	0.0416   	2.2517)		//107
	(0.409   	0.045   	2.2517)		//108
	(0.2778   	0.0553   	2.2517)		//109
	(0.1254   	0.065   	2.2517)		//110
	(0.1162   	0.0654   	2.2517)		//111
	(-0.0361   	0.0481   	2.2517)		//112
	(-0.1732   	-0.0136   	2.2517)		//113
	(-0.1728   	-0.0181   	2.2517)		//114
	(-0.0262   	-0.0567   	2.2517)		//115
	(0.1085   	-0.0486   	2.2517)		//116
	(0.1174   	-0.0457   	2.2517)		//117
	(0.2817   	0.0106   	2.2517)		//118
	(0.409   	0.0414   	2.2517)		//119
	(0.4012   	0.0274   	2.5853)		//120
	(0.2764   	0.0439   	2.5853)		//121
	(0.117   	0.064   	2.5853)		//122
	(0.1091   	0.0646   	2.5853)		//123
	(-0.0405   	0.052   	2.5853)		//124
	(-0.1788   	-0.0076   	2.5853)		//125
	(-0.1785   	-0.0124   	2.5853)		//126
	(-0.0341   	-0.0585   	2.5853)		//127
	(0.1002   	-0.0551   	2.5853)		//128
	(0.1095   	-0.0524   	2.5853)		//129
	(0.2373   	-0.0126   	2.5853)		//130
	(0.4012   	0.0232   	2.5853)		//131
	(0.3785   	0.0277   	2.5853)		//132
	(0.2595   	0.0415   	2.5853)		//133
	(0.116   	0.0579   	2.5853)		//134
	(0.1088   	0.0585   	2.5853)		//135
	(-0.0333   	0.0477   	2.5853)		//136
	(-0.1646   	-0.0054   	2.5853)		//137
	(-0.1643   	-0.0097   	2.5853)		//138
	(-0.0275   	-0.0518   	2.5853)		//139
	(0.1006   	-0.0493   	2.5853)		//140
	(0.1092   	-0.0469   	2.5853)		//141
	(0.2245   	-0.0099   	2.5853)		//142
	(0.3785   	0.0241   	2.5853)		//143
	(0.378   	0.0181   	2.9189)		//144
	(0.2216   	0.0421   	2.9189)		//145
	(0.0984   	0.0591   	2.9189)		//146
	(0.0894   	0.06   	2.9189)		//147
	(-0.037   	0.05   	2.9189)		//148
	(-0.1689   	-0.0031   	2.9189)		//149
	(-0.1687   	-0.0076   	2.9189)		//150
	(-0.0335   	-0.0544   	2.9189)		//151
	(0.0932   	-0.0542   	2.9189)		//152
	(0.1021   	-0.052   	2.9189)		//153
	(0.2236   	-0.0173   	2.9189)		//154
	(0.378   	0.0136   	2.9189)		//155
	(0.3642   	0.0183   	2.9189)		//156
	(0.2459   	0.0351   	2.9189)		//157
	(0.0982   	0.0533   	2.9189)		//158
	(0.09   	0.0541   	2.9189)		//159
	(-0.0294   	0.045   	2.9189)		//160
	(-0.1528   	-0.0028   	2.9189)		//161
	(-0.1526   	-0.0068   	2.9189)		//162
	(-0.0262   	-0.0489   	2.9189)		//163
	(0.0935   	-0.0488   	2.9189)		//164
	(0.1016   	-0.0466   	2.9189)		//165
	(0.2472   	-0.0039   	2.9189)		//166
	(0.3642   	0.0146   	2.9189)		//167
	(0.3548   	0.01   	3.2525)		//168
	(0.2091   	0.0354   	3.2525)		//169
	(0.0935   	0.054   	3.2525)		//170
	(0.085   	0.055   	3.2525)		//171
	(-0.034   	0.0476   	3.2525)		//172
	(-0.1589   	-0.0003   	3.2525)		//173
	(-0.1588   	-0.0045   	3.2525)		//174
	(-0.0323   	-0.0506   	3.2525)		//175
	(0.0869   	-0.0525   	3.2525)		//176
	(0.0953   	-0.0505   	3.2525)		//177
	(0.2101   	-0.0198   	3.2525)		//178
	(0.3548   	0.0059   	3.2525)		//179
	(0.3434   	0.0098   	3.2525)		//180
	(0.2326   	0.0267   	3.2525)		//181
	(0.0928   	0.0487   	3.2525)		//182
	(0.0849   	0.0495   	3.2525)		//183
	(-0.0279   	0.0431   	3.2525)		//184
	(-0.1446   	0.0002   	3.2525)		//185
	(-0.1446   	-0.0036   	3.2525)		//186
	(-0.0263   	-0.0453   	3.2525)		//187
	(0.0866   	-0.0472   	3.2525)		//188
	(0.0944   	-0.0454   	3.2525)		//189
	(0.2332   	-0.0087   	3.2525)		//190
	(0.3434   	0.0075   	3.2525)		//191
	(0.3312   	0.0062   	3.5861)		//192
	(0.1963   	0.0309   	3.5861)		//193
	(0.0881   	0.0496   	3.5861)		//194
	(0.0802   	0.0506   	3.5861)		//195
	(-0.0314   	0.045   	3.5861)		//196
	(-0.1488   	0.0015   	3.5861)		//197
	(-0.1488   	-0.0025   	3.5861)		//198
	(-0.0308   	-0.0471   	3.5861)		//199
	(0.0808   	-0.0501   	3.5861)		//200
	(0.0887   	-0.0483   	3.5861)		//201
	(0.1965   	-0.0208   	3.5861)		//202
	(0.3312   	0.0021   	3.5861)		//203
	(0.3186   	0.0057   	3.5861)		//204
	(0.1908   	0.0281   	3.5861)		//205
	(0.0876   	0.0446   	3.5861)		//206
	(0.08   	0.0455   	3.5861)		//207
	(-0.0276   	0.0403   	3.5861)		//208
	(-0.1378   	0.0012   	3.5861)		//209
	(-0.1378   	-0.0024   	3.5861)		//210
	(-0.0271   	-0.0425   	3.5861)		//211
	(0.0805   	-0.0452   	3.5861)		//212
	(0.0881   	-0.0435   	3.5861)		//213
	(0.1911   	-0.0185   	3.5861)		//214
	(0.3186   	0.0032   	3.5861)		//215
	(0.3076   	0.0029   	3.9197)		//216
	(0.1834   	0.0271   	3.9197)		//217
	(0.0827   	0.0455   	3.9197)		//218
	(0.0753   	0.0465   	3.9197)		//219
	(-0.0289   	0.0422   	3.9197)		//220
	(-0.1389   	0.0027   	3.9197)		//221
	(-0.1389   	-0.001   	3.9197)		//222
	(-0.0292   	-0.0437   	3.9197)		//223
	(0.075   	-0.0475   	3.9197)		//224
	(0.0823   	-0.0459   	3.9197)		//225
	(0.1832   	-0.0212   	3.9197)		//226
	(0.3076   	-0.0011   	3.9197)		//227
	(0.2959   	0.0029   	3.9197)		//228
	(0.1809   	0.0248   	3.9197)		//229
	(0.0824   	0.0411   	3.9197)		//230
	(0.0751   	0.042   	3.9197)		//231
	(-0.0267   	0.0383   	3.9197)		//232
	(-0.1297   	0.0028   	3.9197)		//233
	(-0.1297   	-0.0005   	3.9197)		//234
	(-0.0269   	-0.039   	3.9197)		//235
	(0.0748   	-0.0426   	3.9197)		//236
	(0.0821   	-0.0412   	3.9197)		//237
	(0.1808   	-0.0187   	3.9197)		//238
	(0.2959   	0.0001   	3.9197)		//239
	(0.284   	0.0005   	4.2533)		//240
	(0.1704   	0.0237   	4.2533)		//241
	(0.0771   	0.0416   	4.2533)		//242
	(0.0703   	0.0426   	4.2533)		//243
	(-0.0264   	0.0394   	4.2533)		//244
	(-0.1288   	0.0036   	4.2533)		//245
	(-0.1289   	0.0001   	4.2533)		//246
	(-0.0274   	-0.0403   	4.2533)		//247
	(0.0692   	-0.0446   	4.2533)		//248
	(0.076   	-0.0432   	4.2533)		//249
	(0.1699   	-0.0211   	4.2533)		//250
	(0.284   	-0.0036   	4.2533)		//251
	(0.2697   	0.0006   	4.2533)		//252
	(0.1654   	0.0214   	4.2533)		//253
	(0.0756   	0.0375   	4.2533)		//254
	(0.069   	0.0384   	4.2533)		//255
	(-0.0244   	0.0357   	4.2533)		//256
	(-0.1196   	0.0036   	4.2533)		//257
	(-0.1196   	0.0005   	4.2533)		//258
	(-0.0252   	-0.036   	4.2533)		//259
	(0.068   	-0.0401   	4.2533)		//260
	(0.0746   	-0.0388   	4.2533)		//261
	(0.1649   	-0.0189   	4.2533)		//262
	(0.2697   	-0.003   	4.2533)		//263
	(0.2604   	-0.0011   	4.5868)		//264
	(0.1573   	0.0209   	4.5868)		//265
	(0.0714   	0.0377   	4.5868)		//266
	(0.0651   	0.0387   	4.5868)		//267
	(-0.0241   	0.0365   	4.5868)		//268
	(-0.1187   	0.0043   	4.5868)		//269
	(-0.1188   	0.0011   	4.5868)		//270
	(-0.0256   	-0.0369   	4.5868)		//271
	(0.0634   	-0.0417   	4.5868)		//272
	(0.0697   	-0.0404   	4.5868)		//273
	(0.1564   	-0.0207   	4.5868)		//274
	(0.2604   	-0.0052   	4.5868)		//275
	(0.2555   	-0.0022   	4.5868)		//276
	(0.1535   	0.0187   	4.5868)		//277
	(0.0694   	0.0342   	4.5868)		//278
	(0.0631   	0.0351   	4.5868)		//279
	(-0.0242   	0.0336   	4.5868)		//280
	(-0.1125   	0.0048   	4.5868)		//281
	(-0.1125   	0.0019   	4.5868)		//282
	(-0.0255   	-0.0326   	4.5868)		//283
	(0.0616   	-0.0372   	4.5868)		//284
	(0.0678   	-0.0361   	4.5868)		//285
	(0.1527   	-0.0187   	4.5868)		//286
	(0.2555   	-0.0044   	4.5868)		//287
	(0.2368   	-0.0027   	4.9204)		//288
	(0.1441   	0.0176   	4.9204)		//289
	(0.0656   	0.034   	4.9204)		//290
	(0.0599   	0.035   	4.9204)		//291
	(-0.0218   	0.0336   	4.9204)		//292
	(-0.1087   	0.0048   	4.9204)		//293
	(-0.1088   	0.0019   	4.9204)		//294
	(-0.0237   	-0.0336   	4.9204)		//295
	(0.0578   	-0.0386   	4.9204)		//296
	(0.0635   	-0.0375   	4.9204)		//297
	(0.1431   	-0.0203   	4.9204)		//298
	(0.2368   	-0.0067   	4.9204)		//299
	(0.2318   	-0.0036   	4.9204)		//300
	(0.1403   	0.0153   	4.9204)		//301
	(0.065   	0.0301   	4.9204)		//302
	(0.0595   	0.031   	4.9204)		//303
	(-0.0187   	0.0298   	4.9204)		//304
	(-0.099   	0.0039   	4.9204)		//305
	(-0.0991   	0.0013   	4.9204)		//306
	(-0.0204   	-0.0307   	4.9204)		//307
	(0.0576   	-0.0353   	4.9204)		//308
	(0.0632   	-0.0343   	4.9204)		//309
	(0.1394   	-0.0189   	4.9204)		//310
	(0.2317   	-0.0056   	4.9204)		//311
	(0.2291   	-0.0031   	5.0289)		//312
	(0.1398   	0.017   	5.0289)		//313
	(0.0637   	0.033   	5.0289)		//314
	(0.0581   	0.0339   	5.0289)		//315
	(-0.0212   	0.0327   	5.0289)		//316
	(-0.1055   	0.0049   	5.0289)		//317
	(-0.1056   	0.002   	5.0289)		//318
	(-0.0231   	-0.0325   	5.0289)		//319
	(0.0559   	-0.0379   	5.0289)		//320
	(0.0615   	-0.0368   	5.0289)		//321
	(0.1387   	-0.0201   	5.0289)		//322
	(0.2291   	-0.0072   	5.0289)		//323
	(0.2247   	-0.0041   	5.0289)		//324
	(0.1357   	0.0153   	5.0289)		//325
	(0.0618   	0.03   	5.0289)		//326
	(0.0564   	0.0308   	5.0289)		//327
	(-0.0205   	0.0301   	5.0289)		//328
	(-0.0992   	0.0052   	5.0289)		//329
	(-0.0993   	0.0027   	5.0289)		//330
	(-0.0223   	-0.0286   	5.0289)		//331
	(0.0544   	-0.0338   	5.0289)		//332
	(0.0599   	-0.0328   	5.0289)		//333
	(0.1347   	-0.0181   	5.0289)		//334
	(0.2247   	-0.0062   	5.0289)		//335
	(-0.1063   	0.0238   	-0.5004)		//336
	(-0.0571   	0.0928   	-0.5004)		//337
	(-0.0086   	0.1086   	-0.5004)		//338
	(0.0086   	0.1086   	-0.5004)		//339
	(0.0571   	0.0928   	-0.5004)		//340
	(0.1063   	0.0238   	-0.5004)		//341
	(0.109   	-0.0   	-0.5004)		//342
	(0.0571   	-0.0928   	-0.5004)		//343
	(0.0086   	-0.1086   	-0.5004)		//344
	(-0.0086   	-0.1086   	-0.5004)		//345
	(-0.0571   	-0.0928   	-0.5004)		//346
	(-0.109   	-0.0   	-0.5004)		//347
	(-0.0957   	0.0214   	-0.5004)		//348
	(-0.0514   	0.0835   	-0.5004)		//349
	(-0.0077   	0.0978   	-0.5004)		//350
	(0.0077   	0.0978   	-0.5004)		//351
	(0.0514   	0.0835   	-0.5004)		//352
	(0.0957   	0.0214   	-0.5004)		//353
	(0.0981   	-0.0   	-0.5004)		//354
	(0.0514   	-0.0835   	-0.5004)		//355
	(0.0077   	-0.0978   	-0.5004)		//356
	(-0.0077   	-0.0978   	-0.5004)		//357
	(-0.0514   	-0.0835   	-0.5004)		//358
	(-0.0981   	-0.0   	-0.5004)		//359
	(-0.4633   	0.1732   	-1.251)		//360
	(-0.3062   	0.1482   	-1.251)		//361
	(-0.1502   	0.1236   	-1.251)		//362
	(-0.1339   	0.1206   	-1.251)		//363
	(0.0193   	0.07   	-1.251)		//364
	(0.2059   	-0.0712   	-1.251)		//365
	(0.204   	-0.0767   	-1.251)		//366
	(0.0196   	-0.0806   	-1.251)		//367
	(-0.1281   	-0.0334   	-1.251)		//368
	(-0.1427   	-0.0254   	-1.251)		//369
	(-0.2805   	0.0673   	-1.251)		//370
	(-0.4633   	0.1685   	-1.251)		//371
	(-0.4577   	0.1704   	-1.251)		//372
	(-0.2934   	0.1403   	-1.251)		//373
	(-0.1481   	0.1155   	-1.251)		//374
	(-0.1333   	0.1128   	-1.251)		//375
	(0.0476   	0.0462   	-1.251)		//376
	(0.1938   	-0.067   	-1.251)		//377
	(0.192   	-0.072   	-1.251)		//378
	(0.0542   	-0.0752   	-1.251)		//379
	(-0.129   	-0.0254   	-1.251)		//380
	(-0.1412   	-0.0186   	-1.251)		//381
	(-0.31   	0.0935   	-1.251)		//382
	(-0.4577   	0.1683   	-1.251)		//383
	(-0.4589   	0.1112   	-1.5845)		//384
	(-0.3093   	0.1073   	-1.5845)		//385
	(-0.1276   	0.0972   	-1.5845)		//386
	(-0.1165   	0.0961   	-1.5845)		//387
	(0.0568   	0.0519   	-1.5845)		//388
	(0.2042   	-0.0439   	-1.5845)		//389
	(0.2029   	-0.0493   	-1.5845)		//390
	(0.0277   	-0.074   	-1.5845)		//391
	(-0.1261   	-0.0437   	-1.5845)		//392
	(-0.1363   	-0.0388   	-1.5845)		//393
	(-0.2755   	0.0321   	-1.5845)		//394
	(-0.459   	0.1067   	-1.5845)		//395
	(-0.4421   	0.1086   	-1.5845)		//396
	(-0.295   	0.1   	-1.5845)		//397
	(-0.1275   	0.0893   	-1.5845)		//398
	(-0.1175   	0.0884   	-1.5845)		//399
	(0.0398   	0.0483   	-1.5845)		//400
	(0.1859   	-0.0411   	-1.5845)		//401
	(0.1847   	-0.046   	-1.5845)		//402
	(0.0136   	-0.065   	-1.5845)		//403
	(-0.1261   	-0.0374   	-1.5845)		//404
	(-0.1353   	-0.033   	-1.5845)		//405
	(-0.3055   	0.0525   	-1.5845)		//406
	(-0.4421   	0.1045   	-1.5845)		//407
	(-0.4437   	0.0709   	-1.9181)		//408
	(-0.3014   	0.0757   	-1.9181)		//409
	(-0.1284   	0.0825   	-1.9181)		//410
	(-0.1178   	0.0823   	-1.9181)		//411
	(0.0499   	0.0535   	-1.9181)		//412
	(0.197   	-0.0261   	-1.9181)		//413
	(0.1962   	-0.0314   	-1.9181)		//414
	(0.0319   	-0.068   	-1.9181)		//415
	(-0.1163   	-0.051   	-1.9181)		//416
	(-0.1263   	-0.0472   	-1.9181)		//417
	(-0.2638   	0.0095   	-1.9181)		//418
	(-0.4437   	0.0666   	-1.9181)		//419
	(-0.4171   	0.0679   	-1.9181)		//420
	(-0.2867   	0.0708   	-1.9181)		//421
	(-0.1279   	0.075   	-1.9181)		//422
	(-0.1183   	0.0748   	-1.9181)		//423
	(0.0398   	0.0485   	-1.9181)		//424
	(0.1806   	-0.0236   	-1.9181)		//425
	(0.1799   	-0.0284   	-1.9181)		//426
	(0.0235   	-0.0609   	-1.9181)		//427
	(-0.1169   	-0.0452   	-1.9181)		//428
	(-0.126   	-0.0417   	-1.9181)		//429
	(-0.2516   	0.0105   	-1.9181)		//430
	(-0.417   	0.064   	-1.9181)		//431
	(-0.4233   	0.0458   	-2.2517)		//432
	(-0.2901   	0.0589   	-2.2517)		//433
	(-0.1262   	0.0718   	-2.2517)		//434
	(-0.1161   	0.0722   	-2.2517)		//435
	(0.0447   	0.0534   	-2.2517)		//436
	(0.1884   	-0.0147   	-2.2517)		//437
	(0.188   	-0.0198   	-2.2517)		//438
	(0.0338   	-0.063   	-2.2517)		//439
	(-0.1078   	-0.0544   	-2.2517)		//440
	(-0.1176   	-0.0512   	-2.2517)		//441
	(-0.251   	-0.0044   	-2.2517)		//442
	(-0.4233   	0.0416   	-2.2517)		//443
	(-0.409   	0.045   	-2.2517)		//444
	(-0.2778   	0.0553   	-2.2517)		//445
	(-0.1254   	0.065   	-2.2517)		//446
	(-0.1162   	0.0654   	-2.2517)		//447
	(0.0361   	0.0481   	-2.2517)		//448
	(0.1732   	-0.0136   	-2.2517)		//449
	(0.1728   	-0.0181   	-2.2517)		//450
	(0.0262   	-0.0567   	-2.2517)		//451
	(-0.1085   	-0.0486   	-2.2517)		//452
	(-0.1174   	-0.0457   	-2.2517)		//453
	(-0.2817   	0.0106   	-2.2517)		//454
	(-0.409   	0.0414   	-2.2517)		//455
	(-0.4012   	0.0274   	-2.5853)		//456
	(-0.2764   	0.0439   	-2.5853)		//457
	(-0.117   	0.064   	-2.5853)		//458
	(-0.1091   	0.0646   	-2.5853)		//459
	(0.0405   	0.052   	-2.5853)		//460
	(0.1788   	-0.0076   	-2.5853)		//461
	(0.1785   	-0.0124   	-2.5853)		//462
	(0.0341   	-0.0585   	-2.5853)		//463
	(-0.1002   	-0.0551   	-2.5853)		//464
	(-0.1095   	-0.0524   	-2.5853)		//465
	(-0.2373   	-0.0126   	-2.5853)		//466
	(-0.4012   	0.0232   	-2.5853)		//467
	(-0.3785   	0.0277   	-2.5853)		//468
	(-0.2595   	0.0415   	-2.5853)		//469
	(-0.116   	0.0579   	-2.5853)		//470
	(-0.1088   	0.0585   	-2.5853)		//471
	(0.0333   	0.0477   	-2.5853)		//472
	(0.1646   	-0.0054   	-2.5853)		//473
	(0.1643   	-0.0097   	-2.5853)		//474
	(0.0275   	-0.0518   	-2.5853)		//475
	(-0.1006   	-0.0493   	-2.5853)		//476
	(-0.1092   	-0.0469   	-2.5853)		//477
	(-0.2245   	-0.0099   	-2.5853)		//478
	(-0.3785   	0.0241   	-2.5853)		//479
	(-0.378   	0.0181   	-2.9189)		//480
	(-0.2216   	0.0421   	-2.9189)		//481
	(-0.0984   	0.0591   	-2.9189)		//482
	(-0.0894   	0.06   	-2.9189)		//483
	(0.037   	0.05   	-2.9189)		//484
	(0.1689   	-0.0031   	-2.9189)		//485
	(0.1687   	-0.0076   	-2.9189)		//486
	(0.0335   	-0.0544   	-2.9189)		//487
	(-0.0932   	-0.0542   	-2.9189)		//488
	(-0.1021   	-0.052   	-2.9189)		//489
	(-0.2236   	-0.0173   	-2.9189)		//490
	(-0.378   	0.0136   	-2.9189)		//491
	(-0.3642   	0.0183   	-2.9189)		//492
	(-0.2459   	0.0351   	-2.9189)		//493
	(-0.0982   	0.0533   	-2.9189)		//494
	(-0.09   	0.0541   	-2.9189)		//495
	(0.0294   	0.045   	-2.9189)		//496
	(0.1528   	-0.0028   	-2.9189)		//497
	(0.1526   	-0.0068   	-2.9189)		//498
	(0.0262   	-0.0489   	-2.9189)		//499
	(-0.0935   	-0.0488   	-2.9189)		//500
	(-0.1016   	-0.0466   	-2.9189)		//501
	(-0.2472   	-0.0039   	-2.9189)		//502
	(-0.3642   	0.0146   	-2.9189)		//503
	(-0.3548   	0.01   	-3.2525)		//504
	(-0.2091   	0.0354   	-3.2525)		//505
	(-0.0935   	0.054   	-3.2525)		//506
	(-0.085   	0.055   	-3.2525)		//507
	(0.034   	0.0476   	-3.2525)		//508
	(0.1589   	-0.0003   	-3.2525)		//509
	(0.1588   	-0.0045   	-3.2525)		//510
	(0.0323   	-0.0506   	-3.2525)		//511
	(-0.0869   	-0.0525   	-3.2525)		//512
	(-0.0953   	-0.0505   	-3.2525)		//513
	(-0.2101   	-0.0198   	-3.2525)		//514
	(-0.3548   	0.0059   	-3.2525)		//515
	(-0.3434   	0.0098   	-3.2525)		//516
	(-0.2326   	0.0267   	-3.2525)		//517
	(-0.0928   	0.0487   	-3.2525)		//518
	(-0.0849   	0.0495   	-3.2525)		//519
	(0.0279   	0.0431   	-3.2525)		//520
	(0.1446   	0.0002   	-3.2525)		//521
	(0.1446   	-0.0036   	-3.2525)		//522
	(0.0263   	-0.0453   	-3.2525)		//523
	(-0.0866   	-0.0472   	-3.2525)		//524
	(-0.0944   	-0.0454   	-3.2525)		//525
	(-0.2332   	-0.0087   	-3.2525)		//526
	(-0.3434   	0.0075   	-3.2525)		//527
	(-0.3312   	0.0062   	-3.5861)		//528
	(-0.1963   	0.0309   	-3.5861)		//529
	(-0.0881   	0.0496   	-3.5861)		//530
	(-0.0802   	0.0506   	-3.5861)		//531
	(0.0314   	0.045   	-3.5861)		//532
	(0.1488   	0.0015   	-3.5861)		//533
	(0.1488   	-0.0025   	-3.5861)		//534
	(0.0308   	-0.0471   	-3.5861)		//535
	(-0.0808   	-0.0501   	-3.5861)		//536
	(-0.0887   	-0.0483   	-3.5861)		//537
	(-0.1965   	-0.0208   	-3.5861)		//538
	(-0.3312   	0.0021   	-3.5861)		//539
	(-0.3186   	0.0057   	-3.5861)		//540
	(-0.1908   	0.0281   	-3.5861)		//541
	(-0.0876   	0.0446   	-3.5861)		//542
	(-0.08   	0.0455   	-3.5861)		//543
	(0.0276   	0.0403   	-3.5861)		//544
	(0.1378   	0.0012   	-3.5861)		//545
	(0.1378   	-0.0024   	-3.5861)		//546
	(0.0271   	-0.0425   	-3.5861)		//547
	(-0.0805   	-0.0452   	-3.5861)		//548
	(-0.0881   	-0.0435   	-3.5861)		//549
	(-0.1911   	-0.0185   	-3.5861)		//550
	(-0.3186   	0.0032   	-3.5861)		//551
	(-0.3076   	0.0029   	-3.9197)		//552
	(-0.1834   	0.0271   	-3.9197)		//553
	(-0.0827   	0.0455   	-3.9197)		//554
	(-0.0753   	0.0465   	-3.9197)		//555
	(0.0289   	0.0422   	-3.9197)		//556
	(0.1389   	0.0027   	-3.9197)		//557
	(0.1389   	-0.001   	-3.9197)		//558
	(0.0292   	-0.0437   	-3.9197)		//559
	(-0.075   	-0.0475   	-3.9197)		//560
	(-0.0823   	-0.0459   	-3.9197)		//561
	(-0.1832   	-0.0212   	-3.9197)		//562
	(-0.3076   	-0.0011   	-3.9197)		//563
	(-0.2959   	0.0029   	-3.9197)		//564
	(-0.1809   	0.0248   	-3.9197)		//565
	(-0.0824   	0.0411   	-3.9197)		//566
	(-0.0751   	0.042   	-3.9197)		//567
	(0.0267   	0.0383   	-3.9197)		//568
	(0.1297   	0.0028   	-3.9197)		//569
	(0.1297   	-0.0005   	-3.9197)		//570
	(0.0269   	-0.039   	-3.9197)		//571
	(-0.0748   	-0.0426   	-3.9197)		//572
	(-0.0821   	-0.0412   	-3.9197)		//573
	(-0.1808   	-0.0187   	-3.9197)		//574
	(-0.2959   	0.0001   	-3.9197)		//575
	(-0.284   	0.0005   	-4.2533)		//576
	(-0.1704   	0.0237   	-4.2533)		//577
	(-0.0771   	0.0416   	-4.2533)		//578
	(-0.0703   	0.0426   	-4.2533)		//579
	(0.0264   	0.0394   	-4.2533)		//580
	(0.1288   	0.0036   	-4.2533)		//581
	(0.1289   	0.0001   	-4.2533)		//582
	(0.0274   	-0.0403   	-4.2533)		//583
	(-0.0692   	-0.0446   	-4.2533)		//584
	(-0.076   	-0.0432   	-4.2533)		//585
	(-0.1699   	-0.0211   	-4.2533)		//586
	(-0.284   	-0.0036   	-4.2533)		//587
	(-0.2697   	0.0006   	-4.2533)		//588
	(-0.1654   	0.0214   	-4.2533)		//589
	(-0.0756   	0.0375   	-4.2533)		//590
	(-0.069   	0.0384   	-4.2533)		//591
	(0.0244   	0.0357   	-4.2533)		//592
	(0.1196   	0.0036   	-4.2533)		//593
	(0.1196   	0.0005   	-4.2533)		//594
	(0.0252   	-0.036   	-4.2533)		//595
	(-0.068   	-0.0401   	-4.2533)		//596
	(-0.0746   	-0.0388   	-4.2533)		//597
	(-0.1649   	-0.0189   	-4.2533)		//598
	(-0.2697   	-0.003   	-4.2533)		//599
	(-0.2604   	-0.0011   	-4.5868)		//600
	(-0.1573   	0.0209   	-4.5868)		//601
	(-0.0714   	0.0377   	-4.5868)		//602
	(-0.0651   	0.0387   	-4.5868)		//603
	(0.0241   	0.0365   	-4.5868)		//604
	(0.1187   	0.0043   	-4.5868)		//605
	(0.1188   	0.0011   	-4.5868)		//606
	(0.0256   	-0.0369   	-4.5868)		//607
	(-0.0634   	-0.0417   	-4.5868)		//608
	(-0.0697   	-0.0404   	-4.5868)		//609
	(-0.1564   	-0.0207   	-4.5868)		//610
	(-0.2604   	-0.0052   	-4.5868)		//611
	(-0.2555   	-0.0022   	-4.5868)		//612
	(-0.1535   	0.0187   	-4.5868)		//613
	(-0.0694   	0.0342   	-4.5868)		//614
	(-0.0631   	0.0351   	-4.5868)		//615
	(0.0242   	0.0336   	-4.5868)		//616
	(0.1125   	0.0048   	-4.5868)		//617
	(0.1125   	0.0019   	-4.5868)		//618
	(0.0255   	-0.0326   	-4.5868)		//619
	(-0.0616   	-0.0372   	-4.5868)		//620
	(-0.0678   	-0.0361   	-4.5868)		//621
	(-0.1527   	-0.0187   	-4.5868)		//622
	(-0.2555   	-0.0044   	-4.5868)		//623
	(-0.2368   	-0.0027   	-4.9204)		//624
	(-0.1441   	0.0176   	-4.9204)		//625
	(-0.0656   	0.034   	-4.9204)		//626
	(-0.0599   	0.035   	-4.9204)		//627
	(0.0218   	0.0336   	-4.9204)		//628
	(0.1087   	0.0048   	-4.9204)		//629
	(0.1088   	0.0019   	-4.9204)		//630
	(0.0237   	-0.0336   	-4.9204)		//631
	(-0.0578   	-0.0386   	-4.9204)		//632
	(-0.0635   	-0.0375   	-4.9204)		//633
	(-0.1431   	-0.0203   	-4.9204)		//634
	(-0.2368   	-0.0067   	-4.9204)		//635
	(-0.2318   	-0.0036   	-4.9204)		//636
	(-0.1403   	0.0153   	-4.9204)		//637
	(-0.065   	0.0301   	-4.9204)		//638
	(-0.0595   	0.031   	-4.9204)		//639
	(0.0187   	0.0298   	-4.9204)		//640
	(0.099   	0.0039   	-4.9204)		//641
	(0.0991   	0.0013   	-4.9204)		//642
	(0.0204   	-0.0307   	-4.9204)		//643
	(-0.0576   	-0.0353   	-4.9204)		//644
	(-0.0632   	-0.0343   	-4.9204)		//645
	(-0.1394   	-0.0189   	-4.9204)		//646
	(-0.2317   	-0.0056   	-4.9204)		//647
	(-0.2291   	-0.0031   	-5.0289)		//648
	(-0.1398   	0.017   	-5.0289)		//649
	(-0.0637   	0.033   	-5.0289)		//650
	(-0.0581   	0.0339   	-5.0289)		//651
	(0.0212   	0.0327   	-5.0289)		//652
	(0.1055   	0.0049   	-5.0289)		//653
	(0.1056   	0.002   	-5.0289)		//654
	(0.0231   	-0.0325   	-5.0289)		//655
	(-0.0559   	-0.0379   	-5.0289)		//656
	(-0.0615   	-0.0368   	-5.0289)		//657
	(-0.1387   	-0.0201   	-5.0289)		//658
	(-0.2291   	-0.0072   	-5.0289)		//659
	(-0.2247   	-0.0041   	-5.0289)		//660
	(-0.1357   	0.0153   	-5.0289)		//661
	(-0.0618   	0.03   	-5.0289)		//662
	(-0.0564   	0.0308   	-5.0289)		//663
	(0.0205   	0.0301   	-5.0289)		//664
	(0.0992   	0.0052   	-5.0289)		//665
	(0.0993   	0.0027   	-5.0289)		//666
	(0.0223   	-0.0286   	-5.0289)		//667
	(-0.0544   	-0.0338   	-5.0289)		//668
	(-0.0599   	-0.0328   	-5.0289)		//669
	(-0.1347   	-0.0181   	-5.0289)		//670
	(-0.2247   	-0.0062   	-5.0289)		//671
);

blocks
(
	hex (12 23 11 0 36 47 35 24) rotatingZone (1 2 10) simpleGrading (1 1 1)
	hex (13 12 0 1 37 36 24 25) rotatingZone (3 2 10) simpleGrading (1 1 1)
	hex (14 13 1 2 38 37 25 26) rotatingZone (3 2 10) simpleGrading (1 1 1)
	hex (15 14 2 3 39 38 26 27) rotatingZone (1 2 10) simpleGrading (1 1 1)
	hex (16 15 3 4 40 39 27 28) rotatingZone (3 2 10) simpleGrading (1 1 1)
	hex (17 16 4 5 41 40 28 29) rotatingZone (3 2 10) simpleGrading (1 1 1)
	hex (18 17 5 6 42 41 29 30) rotatingZone (1 2 10) simpleGrading (1 1 1)
	hex (19 18 6 7 43 42 30 31) rotatingZone (3 2 10) simpleGrading (1 1 1)
	hex (20 19 7 8 44 43 31 32) rotatingZone (3 2 10) simpleGrading (1 1 1)
	hex (21 20 8 9 45 44 32 33) rotatingZone (1 2 10) simpleGrading (1 1 1)
	hex (22 21 9 10 46 45 33 34) rotatingZone (3 2 10) simpleGrading (1 1 1)
	hex (23 22 10 11 47 46 34 35) rotatingZone (3 2 10) simpleGrading (1 1 1)
	hex (14 15 20 21 38 39 44 45) rotatingZone (1 1 10) simpleGrading (1 1 1)
	hex (36 47 35 24 60 71 59 48) rotatingZone (1 2 10) simpleGrading (1 1 1)
	hex (37 36 24 25 61 60 48 49) rotatingZone (3 2 10) simpleGrading (1 1 1)
	hex (38 37 25 26 62 61 49 50) rotatingZone (3 2 10) simpleGrading (1 1 1)
	hex (39 38 26 27 63 62 50 51) rotatingZone (1 2 10) simpleGrading (1 1 1)
	hex (40 39 27 28 64 63 51 52) rotatingZone (3 2 10) simpleGrading (1 1 1)
	hex (41 40 28 29 65 64 52 53) rotatingZone (3 2 10) simpleGrading (1 1 1)
	hex (42 41 29 30 66 65 53 54) rotatingZone (1 2 10) simpleGrading (1 1 1)
	hex (43 42 30 31 67 66 54 55) rotatingZone (3 2 10) simpleGrading (1 1 1)
	hex (44 43 31 32 68 67 55 56) rotatingZone (3 2 10) simpleGrading (1 1 1)
	hex (45 44 32 33 69 68 56 57) rotatingZone (1 2 10) simpleGrading (1 1 1)
	hex (46 45 33 34 70 69 57 58) rotatingZone (3 2 10) simpleGrading (1 1 1)
	hex (47 46 34 35 71 70 58 59) rotatingZone (3 2 10) simpleGrading (1 1 1)
	hex (38 39 44 45 62 63 68 69) rotatingZone (1 1 10) simpleGrading (1 1 1)
	hex (60 71 59 48 84 95 83 72) rotatingZone (1 2 10) simpleGrading (1 1 1)
	hex (61 60 48 49 85 84 72 73) rotatingZone (3 2 10) simpleGrading (1 1 1)
	hex (62 61 49 50 86 85 73 74) rotatingZone (3 2 10) simpleGrading (1 1 1)
	hex (63 62 50 51 87 86 74 75) rotatingZone (1 2 10) simpleGrading (1 1 1)
	hex (64 63 51 52 88 87 75 76) rotatingZone (3 2 10) simpleGrading (1 1 1)
	hex (65 64 52 53 89 88 76 77) rotatingZone (3 2 10) simpleGrading (1 1 1)
	hex (66 65 53 54 90 89 77 78) rotatingZone (1 2 10) simpleGrading (1 1 1)
	hex (67 66 54 55 91 90 78 79) rotatingZone (3 2 10) simpleGrading (1 1 1)
	hex (68 67 55 56 92 91 79 80) rotatingZone (3 2 10) simpleGrading (1 1 1)
	hex (69 68 56 57 93 92 80 81) rotatingZone (1 2 10) simpleGrading (1 1 1)
	hex (70 69 57 58 94 93 81 82) rotatingZone (3 2 10) simpleGrading (1 1 1)
	hex (71 70 58 59 95 94 82 83) rotatingZone (3 2 10) simpleGrading (1 1 1)
	hex (62 63 68 69 86 87 92 93) rotatingZone (1 1 10) simpleGrading (1 1 1)
	hex (84 95 83 72 108 119 107 96) rotatingZone (1 2 10) simpleGrading (1 1 1)
	hex (85 84 72 73 109 108 96 97) rotatingZone (3 2 10) simpleGrading (1 1 1)
	hex (86 85 73 74 110 109 97 98) rotatingZone (3 2 10) simpleGrading (1 1 1)
	hex (87 86 74 75 111 110 98 99) rotatingZone (1 2 10) simpleGrading (1 1 1)
	hex (88 87 75 76 112 111 99 100) rotatingZone (3 2 10) simpleGrading (1 1 1)
	hex (89 88 76 77 113 112 100 101) rotatingZone (3 2 10) simpleGrading (1 1 1)
	hex (90 89 77 78 114 113 101 102) rotatingZone (1 2 10) simpleGrading (1 1 1)
	hex (91 90 78 79 115 114 102 103) rotatingZone (3 2 10) simpleGrading (1 1 1)
	hex (92 91 79 80 116 115 103 104) rotatingZone (3 2 10) simpleGrading (1 1 1)
	hex (93 92 80 81 117 116 104 105) rotatingZone (1 2 10) simpleGrading (1 1 1)
	hex (94 93 81 82 118 117 105 106) rotatingZone (3 2 10) simpleGrading (1 1 1)
	hex (95 94 82 83 119 118 106 107) rotatingZone (3 2 10) simpleGrading (1 1 1)
	hex (86 87 92 93 110 111 116 117) rotatingZone (1 1 10) simpleGrading (1 1 1)
	hex (108 119 107 96 132 143 131 120) rotatingZone (1 2 10) simpleGrading (1 1 1)
	hex (109 108 96 97 133 132 120 121) rotatingZone (3 2 10) simpleGrading (1 1 1)
	hex (110 109 97 98 134 133 121 122) rotatingZone (3 2 10) simpleGrading (1 1 1)