// * * * * * * * * * * * * * * * * * * * * * * * * * * * * * * * * * * * * * //
FoamFile
{
	version     2.0;
	format      ascii;
	class       dictionary;
	object      blockMeshDict;
}
// * * * * * * * * * * * * * * * * * * * * * * * * * * * * * * * * * * * * * //
convertToMeters 1;

vertices
(
	(0.109   	-0.0   	0.5004)		//0
	(0.0255   	0.1059   	0.5004)		//1
	(-0.0418   	0.1006   	0.5004)		//2
	(-0.109   	-0.0   	0.5004)		//3
	(-0.0418   	-0.1006   	0.5004)		//4
	(0.0255   	-0.1059   	0.5004)		//5
	(0.0087   	0.0   	0.5004)		//6
	(-0.025   	0.0   	0.5004)		//7
	(0.4816   	0.1754   	1.251)		//8
	(0.1994   	0.1313   	1.251)		//9
	(-0.0193   	0.07   	1.251)		//10
	(-0.2069   	-0.0752   	1.251)		//11
	(-0.0196   	-0.0806   	1.251)		//12
	(0.2338   	0.0353   	1.251)		//13
	(0.1576   	0.0611   	1.251)		//14
	(0.0396   	0.0169   	1.251)		//15
	(0.4797   	0.1109   	1.5845)		//16
	(0.2055   	0.1011   	1.5845)		//17
	(-0.01   	0.0683   	1.5845)		//18
	(-0.2056   	-0.0475   	1.5845)		//19
	(0.0221   	-0.0705   	1.5845)		//20
	(0.2273   	0.007   	1.5845)		//21
	(0.1638   	0.0403   	1.5845)		//22
	(0.0586   	0.0127   	1.5845)		//23
	(0.4634   	0.0687   	1.9181)		//24
	(0.2026   	0.0803   	1.9181)		//25
	(-0.0043   	0.0656   	1.9181)		//26
	(-0.1986   	-0.0295   	1.9181)		//27
	(0.0156   	-0.0686   	1.9181)		//28
	(0.2161   	-0.0106   	1.9181)		//29
	(0.1584   	0.0258   	1.9181)		//30
	(0.0566   	0.0076   	1.9181)		//31
	(0.4436   	0.0416   	2.2517)		//32
	(0.1965   	0.0659   	2.2517)		//33
	(-0.0007   	0.0625   	2.2517)		//34
	(-0.1901   	-0.0178   	2.2517)		//35
	(0.0113   	-0.0659   	2.2517)		//36
	(0.2047   	-0.0211   	2.2517)		//37
	(0.1518   	0.0164   	2.2517)		//38
	(0.0541   	0.0043   	2.2517)		//39
	(0.4211   	0.0245   	2.5853)		//40
	(0.1882   	0.0558   	2.5853)		//41
	(0.0014   	0.0592   	2.5853)		//42
	(-0.1805   	-0.0105   	2.5853)		//43
	(0.0085   	-0.0627   	2.5853)		//44
	(0.193   	-0.0268   	2.5853)		//45
	(0.1442   	0.0104   	2.5853)		//46
	(0.0514   	0.0023   	2.5853)		//47
	(0.3979   	0.0134   	2.9189)		//48
	(0.1788   	0.0483   	2.9189)		//49
	(0.0027   	0.0558   	2.9189)		//50
	(-0.1705   	-0.0058   	2.9189)		//51
	(0.0066   	-0.0594   	2.9189)		//52
	(0.1814   	-0.0298   	2.9189)		//53
	(0.1362   	0.0065   	2.9189)		//54
	(0.0485   	0.001   	2.9189)		//55
	(0.3745   	0.0064   	3.2525)		//56
	(0.1689   	0.0426   	3.2525)		//57
	(0.0034   	0.0524   	3.2525)		//58
	(-0.1605   	-0.0027   	3.2525)		//59
	(0.0053   	-0.056   	3.2525)		//60
	(0.1702   	-0.0308   	3.2525)		//61
	(0.1282   	0.004   	3.2525)		//62
	(0.0456   	0.0001   	3.2525)		//63
	(0.3508   	0.0019   	3.5861)		//64
	(0.1587   	0.0381   	3.5861)		//65
	(0.0038   	0.0491   	3.5861)		//66
	(-0.1503   	-0.0008   	3.5861)		//67
	(0.0043   	-0.0525   	3.5861)		//68
	(0.1591   	-0.0307   	3.5861)		//69
	(0.1202   	0.0024   	3.5861)		//70
	(0.0428   	-0.0004   	3.5861)		//71
	(0.3274   	-0.0013   	3.9197)		//72
	(0.1484   	0.0342   	3.9197)		//73
	(0.004   	0.0457   	3.9197)		//74
	(-0.1403   	0.0005   	3.9197)		//75
	(0.0036   	-0.049   	3.9197)		//76
	(0.1482   	-0.0301   	3.9197)		//77
	(0.1122   	0.0011   	3.9197)		//78
	(0.0399   	-0.0007   	3.9197)		//79
	(0.3038   	-0.0038   	4.2533)		//80
	(0.138   	0.0305   	4.2533)		//81
	(0.004   	0.0424   	4.2533)		//82
	(-0.1302   	0.0016   	4.2533)		//83
	(0.0029   	-0.0455   	4.2533)		//84
	(0.1373   	-0.0291   	4.2533)		//85
	(0.1041   	0.0001   	4.2533)		//86
	(0.037   	-0.001   	4.2533)		//87
	(0.28   	-0.0058   	4.5868)		//88
	(0.1275   	0.0271   	4.5868)		//89
	(0.004   	0.0391   	4.5868)		//90
	(-0.12   	0.0025   	4.5868)		//91
	(0.0024   	-0.042   	4.5868)		//92
	(0.1263   	-0.0279   	4.5868)		//93
	(0.096   	-0.0007   	4.5868)		//94
	(0.0341   	-0.0012   	4.5868)		//95
	(0.2563   	-0.0074   	4.9204)		//96
	(0.1169   	0.0238   	4.9204)		//97
	(0.004   	0.0357   	4.9204)		//98
	(-0.1099   	0.0032   	4.9204)		//99
	(0.0018   	-0.0384   	4.9204)		//100
	(0.1154   	-0.0265   	4.9204)		//101
	(0.0878   	-0.0013   	4.9204)		//102
	(0.0312   	-0.0013   	4.9204)		//103
	(0.2487   	-0.0075   	5.0289)		//104
	(0.1134   	0.023   	5.0289)		//105
	(0.0038   	0.0347   	5.0289)		//106
	(-0.1067   	0.0033   	5.0289)		//107
	(0.0017   	-0.0373   	5.0289)		//108
	(0.1119   	-0.0258   	5.0289)		//109
	(0.0852   	-0.0014   	5.0289)		//110
	(0.0302   	-0.0013   	5.0289)		//111
	(-0.109   	-0.0   	-0.5004)		//112
	(-0.0255   	0.1059   	-0.5004)		//113
	(0.0418   	0.1006   	-0.5004)		//114
	(0.109   	-0.0   	-0.5004)		//115
	(0.0418   	-0.1006   	-0.5004)		//116
	(-0.0255   	-0.1059   	-0.5004)		//117
	(-0.0087   	0.0   	-0.5004)		//118
	(0.025   	0.0   	-0.5004)		//119
	(-0.4816   	0.1754   	-1.251)		//120
	(-0.1994   	0.1313   	-1.251)		//121
	(0.0193   	0.07   	-1.251)		//122
	(0.2069   	-0.0752   	-1.251)		//123
	(0.0196   	-0.0806   	-1.251)		//124
	(-0.2338   	0.0353   	-1.251)		//125
	(-0.1576   	0.0611   	-1.251)		//126
	(-0.0396   	0.0169   	-1.251)		//127
	(-0.4797   	0.1109   	-1.5845)		//128
	(-0.2055   	0.1011   	-1.5845)		//129
	(0.01   	0.0683   	-1.5845)		//130
	(0.2056   	-0.0475   	-1.5845)		//131
	(-0.0221   	-0.0705   	-1.5845)		//132
	(-0.2273   	0.007   	-1.5845)		//133
	(-0.1638   	0.0403   	-1.5845)		//134
	(-0.0586   	0.0127   	-1.5845)		//135
	(-0.4634   	0.0687   	-1.9181)		//136
	(-0.2026   	0.0803   	-1.9181)		//137
	(0.0043   	0.0656   	-1.9181)		//138
	(0.1986   	-0.0295   	-1.9181)		//139
	(-0.0156   	-0.0686   	-1.9181)		//140
	(-0.2161   	-0.0106   	-1.9181)		//141
	(-0.1584   	0.0258   	-1.9181)		//142
	(-0.0566   	0.0076   	-1.9181)		//143
	(-0.4436   	0.0416   	-2.2517)		//144
	(-0.1965   	0.0659   	-2.2517)		//145
	(0.0007   	0.0625   	-2.2517)		//146
	(0.1901   	-0.0178   	-2.2517)		//147
	(-0.0113   	-0.0659   	-2.2517)		//148
	(-0.2047   	-0.0211   	-2.2517)		//149
	(-0.1518   	0.0164   	-2.2517)		//150
	(-0.0541   	0.0043   	-2.2517)		//151
	(-0.4211   	0.0245   	-2.5853)		//152
	(-0.1882   	0.0558   	-2.5853)		//153
	(-0.0014   	0.0592   	-2.5853)		//154
	(0.1805   	-0.0105   	-2.5853)		//155
	(-0.0085   	-0.0627   	-2.5853)		//156
	(-0.193   	-0.0268   	-2.5853)		//157
	(-0.1442   	0.0104   	-2.5853)		//158
	(-0.0514   	0.0023   	-2.5853)		//159
	(-0.3979   	0.0134   	-2.9189)		//160
	(-0.1788   	0.0483   	-2.9189)		//161
	(-0.0027   	0.0558   	-2.9189)		//162
	(0.1705   	-0.0058   	-2.9189)		//163
	(-0.0066   	-0.0594   	-2.9189)		//164
	(-0.1814   	-0.0298   	-2.9189)		//165
	(-0.1362   	0.0065   	-2.9189)		//166
	(-0.0485   	0.001   	-2.9189)		//167
	(-0.3745   	0.0064   	-3.2525)		//168
	(-0.1689   	0.0426   	-3.2525)		//169
	(-0.0034   	0.0524   	-3.2525)		//170
	(0.1605   	-0.0027   	-3.2525)		//171
	(-0.0053   	-0.056   	-3.2525)		//172
	(-0.1702   	-0.0308   	-3.2525)		//173
	(-0.1283   	0.004   	-3.2525)		//174
	(-0.0457   	0.0001   	-3.2525)		//175
	(-0.3508   	0.0019   	-3.5861)		//176
	(-0.1587   	0.0381   	-3.5861)		//177
	(-0.0038   	0.0491   	-3.5861)		//178
	(0.1503   	-0.0008   	-3.5861)		//179
	(-0.0043   	-0.0525   	-3.5861)		//180
	(-0.1591   	-0.0307   	-3.5861)		//181
	(-0.1202   	0.0024   	-3.5861)		//182
	(-0.0428   	-0.0004   	-3.5861)		//183
	(-0.3274   	-0.0013   	-3.9197)		//184
	(-0.1484   	0.0342   	-3.9197)		//185
	(-0.004   	0.0457   	-3.9197)		//186
	(0.1403   	0.0005   	-3.9197)		//187
	(-0.0036   	-0.049   	-3.9197)		//188
	(-0.1482   	-0.0301   	-3.9197)		//189
	(-0.1122   	0.0011   	-3.9197)		//190
	(-0.0399   	-0.0007   	-3.9197)		//191
	(-0.3038   	-0.0038   	-4.2533)		//192
	(-0.138   	0.0305   	-4.2533)		//193
	(-0.004   	0.0424   	-4.2533)		//194
	(0.1302   	0.0016   	-4.2533)		//195
	(-0.0029   	-0.0455   	-4.2533)		//196
	(-0.1373   	-0.0291   	-4.2533)		//197
	(-0.1041   	0.0001   	-4.2533)		//198
	(-0.037   	-0.001   	-4.2533)		//199
	(-0.28   	-0.0058   	-4.5868)		//200
	(-0.1275   	0.0271   	-4.5868)		//201
	(-0.004   	0.0391   	-4.5868)		//202
	(0.12   	0.0025   	-4.5868)		//203
	(-0.0024   	-0.042   	-4.5868)		//204
	(-0.1263   	-0.0279   	-4.5868)		//205
	(-0.096   	-0.0007   	-4.5868)		//206
	(-0.0341   	-0.0012   	-4.5868)		//207
	(-0.2563   	-0.0074   	-4.9204)		//208
	(-0.1169   	0.0238   	-4.9204)		//209
	(-0.004   	0.0357   	-4.9204)		//210
	(0.1099   	0.0032   	-4.9204)		//211
	(-0.0018   	-0.0384   	-4.9204)		//212
	(-0.1154   	-0.0265   	-4.9204)		//213
	(-0.0878   	-0.0013   	-4.9204)		//214
	(-0.0312   	-0.0013   	-4.9204)		//215
	(-0.2487   	-0.0075   	-5.0289)		//216
	(-0.1134   	0.023   	-5.0289)		//217
	(-0.0038   	0.0347   	-5.0289)		//218
	(0.1067   	0.0033   	-5.0289)		//219
	(-0.0017   	-0.0373   	-5.0289)		//220
	(-0.1119   	-0.0258   	-5.0289)		//221
	(-0.0852   	-0.0014   	-5.0289)		//222
	(-0.0302   	-0.0013   	-5.0289)		//223
);

blocks
(
	hex (0 1 6 5 8 9 14 13) rotatingZone (5 5 10) simpleGrading (1 1 1)
	hex (1 2 7 6 9 10 15 14) rotatingZone (5 5 10) simpleGrading (1 1 1)
	hex (2 3 4 7 10 11 12 15) rotatingZone (5 5 10) simpleGrading (1 1 1)
	hex (4 5 6 7 12 13 14 15) rotatingZone (5 5 10) simpleGrading (1 1 1)
	hex (8 9 14 13 16 17 22 21) rotatingZone (5 5 10) simpleGrading (1 1 1)
	hex (9 10 15 14 17 18 23 22) rotatingZone (5 5 10) simpleGrading (1 1 1)
	hex (10 11 12 15 18 19 20 23) rotatingZone (5 5 10) simpleGrading (1 1 1)
	hex (12 13 14 15 20 21 22 23) rotatingZone (5 5 10) simpleGrading (1 1 1)
	hex (16 17 22 21 24 25 30 29) rotatingZone (5 5 10) simpleGrading (1 1 1)
	hex (17 18 23 22 25 26 31 30) rotatingZone (5 5 10) simpleGrading (1 1 1)
	hex (18 19 20 23 26 27 28 31) rotatingZone (5 5 10) simpleGrading (1 1 1)
	hex (20 21 22 23 28 29 30 31) rotatingZone (5 5 10) simpleGrading (1 1 1)
	hex (24 25 30 29 32 33 38 37) rotatingZone (5 5 10) simpleGrading (1 1 1)
	hex (25 26 31 30 33 34 39 38) rotatingZone (5 5 10) simpleGrading (1 1 1)
	hex (26 27 28 31 34 35 36 39) rotatingZone (5 5 10) simpleGrading (1 1 1)
	hex (28 29 30 31 36 37 38 39) rotatingZone (5 5 10) simpleGrading (1 1 1)
	hex (32 33 38 37 40 41 46 45) rotatingZone (5 5 10) simpleGrading (1 1 1)
	hex (33 34 39 38 41 42 47 46) rotatingZone (5 5 10) simpleGrading (1 1 1)
	hex (34 35 36 39 42 43 44 47) rotatingZone (5 5 10) simpleGrading (1 1 1)
	hex (36 37 38 39 44 45 46 47) rotatingZone (5 5 10) simpleGrading (1 1 1)
	hex (40 41 46 45 48 49 54 53) rotatingZone (5 5 10) simpleGrading (1 1 1)
	hex (41 42 47 46 49 50 55 54) rotatingZone (5 5 10) simpleGrading (1 1 1)
	hex (42 43 44 47 50 51 52 55) rotatingZone (5 5 10) simpleGrading (1 1 1)
	hex (44 45 46 47 52 53 54 55) rotatingZone (5 5 10) simpleGrading (1 1 1)
	hex (48 49 54 53 56 57 62 61) rotatingZone (5 5 10) simpleGrading (1 1 1)
	hex (49 50 55 54 57 58 63 62) rotatingZone (5 5 10) simpleGrading (1 1 1)
	hex (50 51 52 55 58 59 60 63) rotatingZone (5 5 10) simpleGrading (1 1 1)
	hex (52 53 54 55 60 61 62 63) rotatingZone (5 5 10) simpleGrading (1 1 1)
	hex (56 57 62 61 64 65 70 69) rotatingZone (5 5 10) simpleGrading (1 1 1)
	hex (57 58 63 62 65 66 71 70) rotatingZone (5 5 10) simpleGrading (1 1 1)
	hex (58 59 60 63 66 67 68 71) rotatingZone (5 5 10) simpleGrading (1 1 1)
	hex (60 61 62 63 68 69 70 71) rotatingZone (5 5 10) simpleGrading (1 1 1)
	hex (64 65 70 69 72 73 78 77) rotatingZone (5 5 10) simpleGrading (1 1 1)
	hex (65 66 71 70 73 74 79 78) rotatingZone (5 5 10) simpleGrading (1 1 1)
	hex (66 67 68 71 74 75 76 79) rotatingZone (5 5 10) simpleGrading (1 1 1)
	hex (68 69 70 71 76 77 78 79) rotatingZone (5 5 10) simpleGrading (1 1 1)
	hex (72 73 78 77 80 81 86 85) rotatingZone (5 5 10) simpleGrading (1 1 1)
	hex (73 74 79 78 81 82 87 86) rotatingZone (5 5 10) simpleGrading (1 1 1)
	hex (74 75 76 79 82 83 84 87) rotatingZone (5 5 10) simpleGrading (1 1 1)
	hex (76 77 78 79 84 85 86 87) rotatingZone (5 5 10) simpleGrading (1 1 1)
	hex (80 81 86 85 88 89 94 93) rotatingZone (5 5 10) simpleGrading (1 1 1)
	hex (81 82 87 86 89 90 95 94) rotatingZone (5 5 10) simpleGrading (1 1 1)
	hex (82 83 84 87 90 91 92 95) rotatingZone (5 5 10) simpleGrading (1 1 1)
	hex (84 85 86 87 92 93 94 95) rotatingZone (5 5 10) simpleGrading (1 1 1)
	hex (88 89 94 93 96 97 102 101) rotatingZone (5 5 10) simpleGrading (1 1 1)
	hex (89 90 95 94 97 98 103 102) rotatingZone (5 5 10) simpleGrading (1 1 1)
	hex (90 91 92 95 98 99 100 103) rotatingZone (5 5 10) simpleGrading (1 1 1)
	hex (92 93 94 95 100 101 102 103) rotatingZone (5 5 10) simpleGrading (1 1 1)
	hex (96 97 102 101 104 105 110 109) rotatingZone (5 5 5) simpleGrading (1 1 1)
	hex (97 98 103 102 105 106 111 110) rotatingZone (5 5 5) simpleGrading (1 1 1)
	hex (98 99 100 103 106 107 108 111) rotatingZone (5 5 5) simpleGrading (1 1 1)
	hex (100 101 102 103 108 109 110 111) rotatingZone (5 5 5) simpleGrading (1 1 1)
	hex (112 113 118 117 120 121 126 125) rotatingZone (5 5 10) simpleGrading (1 1 1)
	hex (113 114 119 118 121 122 127 126) rotatingZone (5 5 10) simpleGrading (1 1 1)
	hex (114 115 116 119 122 123 124 127) rotatingZone (5 5 10) simpleGrading (1 1 1)
	hex (116 117 118 119 124 125 126 127) rotatingZone (5 5 10) simpleGrading (1 1 1)
	hex (120 121 126 125 128 129 134 133) rotatingZone (5 5 10) simpleGrading (1 1 1)
	hex (121 122 127 126 129 130 135 134) rotatingZone (5 5 10) simpleGrading (1 1 1)
	hex (122 123 124 127 130 131 132 135) rotatingZone (5 5 10) simpleGrading (1 1 1)
	hex (124 125 126 127 132 133 134 135) rotatingZone (5 5 10) simpleGrading (1 1 1)
	hex (128 129 134 133 136 137 142 141) rotatingZone (5 5 10) simpleGrading (1 1 1)
	hex (129 130 135 134 137 138 143 142) rotatingZone (5 5 10) simpleGrading (1 1 1)
	hex (130 131 132 135 138 139 140 143) rotatingZone (5 5 10) simpleGrading (1 1 1)
	hex (132 133 134 135 140 141 142 143) rotatingZone (5 5 10) simpleGrading (1 1 1)
	hex (136 137 142 141 144 145 150 149) rotatingZone (5 5 10) simpleGrading (1 1 1)
	hex (137 138 143 142 145 146 151 150) rotatingZone (5 5 10) simpleGrading (1 1 1)
	hex (138 139 140 143 146 147 148 151) rotatingZone (5 5 10) simpleGrading (1 1 1)
	hex (140 141 142 143 148 149 150 151) rotatingZone (5 5 10) simpleGrading (1 1 1)
	hex (144 145 150 149 152 153 158 157) rotatingZone (5 5 10) simpleGrading (1 1 1)
	hex (145 146 151 150 153 154 159 158) rotatingZone (5 5 10) simpleGrading (1 1 1)
	hex (146 147 148 151 154 155 156 159) rotatingZone (5 5 10) simpleGrading (1 1 1)
	hex (148 149 150 151 156 157 158 159) rotatingZone (5 5 10) simpleGrading (1 1 1)
	hex (152 153 158 157 160 161 166 165) rotatingZone (5 5 10) simpleGrading (1 1 1)
	hex (153 154 159 158 161 162 167 166) rotatingZone (5 5 10) simpleGrading (1 1 1)
	hex (154 155 156 159 162 163 164 167) rotatingZone (5 5 10) simpleGrading (1 1 1)
	hex (156 157 158 159 164 165 166 167) rotatingZone (5 5 10) simpleGrading (1 1 1)
	hex (160 161 166 165 168 169 174 173) rotatingZone (5 5 10) simpleGrading (1 1 1)
	hex (161 162 167 166 169 170 175 174) rotatingZone (5 5 10) simpleGrading (1 1 1)
	hex (162 163 164 167 170 171 172 175) rotatingZone (5 5 10) simpleGrading (1 1 1)
	hex (164 165 166 167 172 173 174 175) rotatingZone (5 5 10) simpleGrading (1 1 1)
	hex (168 169 174 173 176 177 182 181) rotatingZone (5 5 10) simpleGrading (1 1 1)
	hex (169 170 175 174 177 178 183 182) rotatingZone (5 5 10) simpleGrading (1 1 1)
	hex (170 171 172 175 178 179 180 183) rotatingZone (5 5 10) simpleGrading (1 1 1)
	hex (172 173 174 175 180 181 182 183) rotatingZone (5 5 10) simpleGrading (1 1 1)
	hex (176 177 182 181 184 185 190 189) rotatingZone (5 5 10) simpleGrading (1 1 1)
	hex (177 178 183 182 185 186 191 190) rotatingZone (5 5 10) simpleGrading (1 1 1)
	hex (178 179 180 183 186 187 188 191) rotatingZone (5 5 10) simpleGrading (1 1 1)
	hex (180 181 182 183 188 189 190 191) rotatingZone (5 5 10) simpleGrading (1 1 1)
	hex (184 185 190 189 192 193 198 197) rotatingZone (5 5 10) simpleGrading (1 1 1)
	hex (185 186 191 190 193 194 199 198) rotatingZone (5 5 10) simpleGrading (1 1 1)
	hex (186 187 188 191 194 195 196 199) rotatingZone (5 5 10) simpleGrading (1 1 1)
	hex (188 189 190 191 196 197 198 199) rotatingZone (5 5 10) simpleGrading (1 1 1)
	hex (192 193 198 197 200 201 206 205) rotatingZone (5 5 10) simpleGrading (1 1 1)
	hex (193 194 199 198 201 202 207 206) rotatingZone (5 5 10) simpleGrading (1 1 1)
	hex (194 195 196 199 202 203 204 207) rotatingZone (5 5 10) simpleGrading (1 1 1)
	hex (196 197 198 199 204 205 206 207) rotatingZone (5 5 10) simpleGrading (1 1 1)
	hex (200 201 206 205 208 209 214 213) rotatingZone (5 5 10) simpleGrading (1 1 1)
	hex (201 202 207 206 209 210 215 214) rotatingZone (5 5 10) simpleGrading (1 1 1)
	hex (202 203 204 207 210 211 212 215) rotatingZone (5 5 10) simpleGrading (1 1 1)
	hex (204 205 206 207 212 213 214 215) rotatingZone (5 5 10) simpleGrading (1 1 1)
	hex (208 209 214 213 216 217 222 221) rotatingZone (5 5 5) simpleGrading (1 1 1)
	hex (209 210 215 214 217 218 223 222) rotatingZone (5 5 5) simpleGrading (1 1 1)
	hex (210 211 212 215 218 219 220 223) rotatingZone (5 5 5) simpleGrading (1 1 1)
	hex (212 213 214 215 220 221 222 223) rotatingZone (5 5 5) simpleGrading (1 1 1)
	hex (115 114 119 116 0 1 6 5) rotatingZone (5 5 10) simpleGrading (1 1 1)
	hex (114 113 118 119 1 2 7 6) rotatingZone (5 5 10) simpleGrading (1 1 1)
	hex (113 112 117 118 2 3 4 7) rotatingZone (5 5 10) simpleGrading (1 1 1)
	hex (117 116 119 118 4 5 6 7) rotatingZone (5 5 10) simpleGrading (1 1 1)
);

edges
(
	BSpline 1 0
	(
		(0.0418 0.1006 0.5004)
		(0.0571 0.0928 0.5004)
		(0.071 0.0826 0.5004)
		(0.0831 0.0704 0.5004)
		(0.0932 0.0564 0.5004)
		(0.101 0.0409 0.5004)
		(0.1063 0.0238 0.5004)
	)
	BSpline 2 1
	(
		(-0.0255 0.1059 0.5004)
		(-0.0086 0.1086 0.5004)
		(0.0086 0.1086 0.5004)
	)
	BSpline 3 2
	(
		(-0.1063 0.0238 0.5004)
		(-0.101 0.0409 0.5004)
		(-0.0932 0.0564 0.5004)
		(-0.0831 0.0704 0.5004)
		(-0.071 0.0826 0.5004)
		(-0.0571 0.0928 0.5004)
	)
	BSpline 4 3
	(
		(-0.0571 -0.0928 0.5004)
		(-0.071 -0.0826 0.5004)
		(-0.0831 -0.0704 0.5004)
		(-0.0932 -0.0564 0.5004)
		(-0.101 -0.0409 0.5004)
		(-0.1063 -0.0238 0.5004)
	)
	BSpline 5 4
	(
		(0.0086 -0.1086 0.5004)
		(-0.0086 -0.1086 0.5004)
		(-0.0255 -0.1059 0.5004)
	)
	BSpline 0 5
	(
		(0.1063 -0.0238 0.5004)
		(0.101 -0.0409 0.5004)
		(0.0932 -0.0564 0.5004)
		(0.0831 -0.0704 0.5004)
		(0.071 -0.0826 0.5004)
		(0.0571 -0.0928 0.5004)
		(0.0418 -0.1006 0.5004)
	)
	BSpline 9 8
	(
		(0.2546 0.1399 1.251)
		(0.3062 0.1482 1.251)
		(0.353 0.156 1.251)
		(0.3939 0.1628 1.251)
		(0.4281 0.1679 1.251)
		(0.4547 0.1713 1.251)
		(0.4727 0.1738 1.251)
	)
	BSpline 10 9
	(
		(0.0312 0.0916 1.251)
		(0.0852 0.1099 1.251)
		(0.142 0.1223 1.251)
	)
	BSpline 11 10
	(
		(-0.203 -0.0593 1.251)
		(-0.1904 -0.0418 1.251)
		(-0.1698 -0.0217 1.251)
		(-0.1417 0.0003 1.251)
		(-0.1068 0.0236 1.251)
		(-0.0656 0.0471 1.251)
	)
	BSpline 12 11
	(
		(-0.0673 -0.0859 1.251)
		(-0.1099 -0.088 1.251)
		(-0.1462 -0.0873 1.251)
		(-0.1748 -0.0851 1.251)
		(-0.1951 -0.0815 1.251)
	)
	BSpline 13 12
	(
		(0.1854 0.0017 1.251)
		(0.1355 -0.0299 1.251)
		(0.0838 -0.0543 1.251)
		(0.0314 -0.0707 1.251)
	)
	BSpline 8 13
	(
		(0.473 0.1725 1.251)
		(0.4562 0.1663 1.251)
		(0.4322 0.1558 1.251)
		(0.4016 0.1407 1.251)
		(0.3653 0.1209 1.251)
		(0.3247 0.0962 1.251)
		(0.2805 0.0673 1.251)
	)
	BSpline 17 16
	(
		(0.2591 0.1029 1.5845)
		(0.3093 0.1048 1.5845)
		(0.3548 0.1069 1.5845)
		(0.3945 0.1087 1.5845)
		(0.4277 0.1096 1.5845)
		(0.4535 0.1099 1.5845)
		(0.4709 0.1103 1.5845)
	)
	BSpline 18 17
	(
		(0.0407 0.0829 1.5845)
		(0.0942 0.094 1.5845)
		(0.1498 0.0993 1.5845)
	)
	BSpline 19 18
	(
		(-0.2 -0.033 1.5845)
		(-0.186 -0.018 1.5845)
		(-0.164 -0.0013 1.5845)
		(-0.1347 0.0163 1.5845)
		(-0.0987 0.0344 1.5845)
		(-0.0568 0.0519 1.5845)
	)
	BSpline 20 19
	(
		(-0.0277 -0.074 1.5845)
		(-0.0738 -0.0735 1.5845)
		(-0.1146 -0.0706 1.5845)
		(-0.1491 -0.0658 1.5845)
		(-0.1761 -0.0604 1.5845)
		(-0.195 -0.0548 1.5845)
	)
	BSpline 21 20
	(
		(0.1772 -0.0194 1.5845)
		(0.1261 -0.0437 1.5845)
		(0.0739 -0.0609 1.5845)
	)
	BSpline 16 21
	(
		(0.4711 0.1094 1.5845)
		(0.4544 0.1055 1.5845)
		(0.4303 0.0984 1.5845)
		(0.3994 0.0877 1.5845)
		(0.3626 0.0732 1.5845)
		(0.321 0.0544 1.5845)
		(0.2755 0.0321 1.5845)
	)
	BSpline 25 24
	(
		(0.2536 0.0779 1.9181)
		(0.3014 0.0759 1.9181)
		(0.3447 0.0744 1.9181)
		(0.3825 0.0731 1.9181)
		(0.4141 0.0714 1.9181)
		(0.4385 0.0697 1.9181)
		(0.4551 0.0688 1.9181)
	)
	BSpline 26 25
	(
		(0.0449 0.0756 1.9181)
		(0.0965 0.082 1.9181)
		(0.1497 0.0828 1.9181)
	)
	BSpline 27 26
	(
		(-0.1923 -0.0161 1.9181)
		(-0.1778 -0.0029 1.9181)
		(-0.1557 0.0112 1.9181)
		(-0.1265 0.0257 1.9181)
		(-0.091 0.0401 1.9181)
		(-0.0499 0.0535 1.9181)
	)
	BSpline 28 27
	(
		(-0.0319 -0.068 1.9181)
		(-0.0756 -0.0642 1.9181)
		(-0.1141 -0.0582 1.9181)
		(-0.1464 -0.0511 1.9181)
		(-0.1717 -0.0439 1.9181)
		(-0.1891 -0.0371 1.9181)
	)
	BSpline 29 28
	(
		(0.1667 -0.0318 1.9181)
		(0.1163 -0.051 1.9181)
		(0.0655 -0.0634 1.9181)
	)
	BSpline 24 29
	(
		(0.4552 0.0679 1.9181)
		(0.4391 0.0656 1.9181)
		(0.4157 0.0607 1.9181)
		(0.3855 0.0529 1.9181)
		(0.3495 0.0418 1.9181)
		(0.3086 0.0272 1.9181)
		(0.2638 0.0095 1.9181)
	)
	BSpline 33 32
	(
		(0.2448 0.061 2.2517)
		(0.2901 0.0567 2.2517)
		(0.3311 0.0531 2.2517)
		(0.367 0.0499 2.2517)
		(0.3969 0.0467 2.2517)
		(0.42 0.0438 2.2517)
		(0.4357 0.0421 2.2517)
	)
	BSpline 34 33
	(
		(0.0465 0.0695 2.2517)
		(0.0959 0.073 2.2517)
		(0.1464 0.071 2.2517)
	)
	BSpline 35 34
	(
		(-0.1834 -0.0055 2.2517)
		(-0.169 0.0063 2.2517)
		(-0.1473 0.0186 2.2517)
		(-0.1188 0.0308 2.2517)
		(-0.0844 0.0427 2.2517)
		(-0.0447 0.0534 2.2517)
	)
	BSpline 36 35
	(
		(-0.0338 -0.063 2.2517)
		(-0.075 -0.0571 2.2517)
		(-0.1113 -0.0495 2.2517)
		(-0.1417 -0.0411 2.2517)
		(-0.1653 -0.033 2.2517)
		(-0.1815 -0.0256 2.2517)
	)
	BSpline 37 36
	(
		(0.1567 -0.0388 2.2517)
		(0.1078 -0.0544 2.2517)
		(0.059 -0.0636 2.2517)
	)
	BSpline 32 37
	(
		(0.4358 0.0413 2.2517)
		(0.4204 0.0398 2.2517)
		(0.3978 0.0364 2.2517)
		(0.3688 0.0305 2.2517)
		(0.3341 0.0219 2.2517)
		(0.2944 0.0101 2.2517)
		(0.251 -0.0044 2.2517)
	)
	BSpline 41 40
	(
		(0.2337 0.0495 2.5853)
		(0.2764 0.0439 2.5853)
		(0.3151 0.0391 2.5853)
		(0.3489 0.0349 2.5853)
		(0.3771 0.0309 2.5853)
		(0.3988 0.0274 2.5853)
		(0.4137 0.0252 2.5853)
	)
	BSpline 42 41
	(
		(0.0463 0.0642 2.5853)
		(0.0931 0.0658 2.5853)
		(0.1409 0.0622 2.5853)
	)
	BSpline 43 42
	(
		(-0.1737 0.001 2.5853)
		(-0.1597 0.0117 2.5853)
		(-0.1387 0.0226 2.5853)
		(-0.1114 0.0332 2.5853)
		(-0.0784 0.0433 2.5853)
		(-0.0405 0.052 2.5853)
	)
	BSpline 44 43
	(
		(-0.0341 -0.0585 2.5853)
		(-0.0729 -0.0515 2.5853)
		(-0.107 -0.0431 2.5853)
		(-0.1354 -0.0341 2.5853)
		(-0.1575 -0.0257 2.5853)
		(-0.1726 -0.0181 2.5853)
	)
	BSpline 45 44
	(
		(0.1469 -0.0419 2.5853)
		(0.1002 -0.0551 2.5853)
		(0.0537 -0.0621 2.5853)
	)
	BSpline 40 45
	(
		(0.4137 0.0244 2.5853)
		(0.3991 0.0236 2.5853)
		(0.3776 0.0211 2.5853)
		(0.35 0.0165 2.5853)
		(0.3168 0.0095 2.5853)
		(0.2789 -0.0003 2.5853)
		(0.2373 -0.0126 2.5853)
	)
	BSpline 49 48
	(
		(0.2216 0.0413 2.9189)
		(0.2617 0.0351 2.9189)
		(0.2982 0.0296 2.9189)
		(0.33 0.0249 2.9189)
		(0.3565 0.0205 2.9189)
		(0.3769 0.0167 2.9189)
		(0.3908 0.0143 2.9189)
	)
	BSpline 50 49
	(
		(0.0452 0.0595 2.9189)
		(0.0894 0.06 2.9189)
		(0.1343 0.0555 2.9189)
	)
	BSpline 51 50
	(
		(-0.1639 0.0049 2.9189)
		(-0.1504 0.0147 2.9189)
		(-0.1304 0.0245 2.9189)
		(-0.1044 0.0339 2.9189)
		(-0.073 0.0426 2.9189)
		(-0.037 0.05 2.9189)
	)
	BSpline 52 51
	(
		(-0.0335 -0.0544 2.9189)
		(-0.07 -0.0469 2.9189)
		(-0.1019 -0.0382 2.9189)
		(-0.1286 -0.0291 2.9189)
		(-0.1492 -0.0206 2.9189)
		(-0.1633 -0.0131 2.9189)
	)
	BSpline 53 52
	(
		(0.1376 -0.0429 2.9189)
		(0.0932 -0.0542 2.9189)
		(0.0492 -0.0598 2.9189)
	)
	BSpline 48 53
	(
		(0.3909 0.0135 2.9189)
		(0.377 0.0131 2.9189)
		(0.3568 0.0112 2.9189)
		(0.3306 0.0075 2.9189)
		(0.2991 0.0017 2.9189)
		(0.2631 -0.0067 2.9189)
		(0.2236 -0.0173 2.9189)
	)
	BSpline 57 56
	(
		(0.2091 0.0354 3.2525)
		(0.2468 0.0289 3.2525)
		(0.2809 0.0232 3.2525)
		(0.3108 0.0182 3.2525)
		(0.3356 0.0137 3.2525)
		(0.3548 0.0098 3.2525)
		(0.3679 0.0073 3.2525)
	)
	BSpline 58 57
	(
		(0.0434 0.0552 3.2525)
		(0.085 0.055 3.2525)
		(0.1272 0.0501 3.2525)
	)
	BSpline 59 58
	(
		(-0.1541 0.0072 3.2525)
		(-0.1412 0.0162 3.2525)
		(-0.1222 0.0251 3.2525)
		(-0.0976 0.0335 3.2525)
		(-0.068 0.0412 3.2525)
		(-0.034 0.0476 3.2525)
	)
	BSpline 60 59
	(
		(-0.0323 -0.0506 3.2525)
		(-0.0665 -0.043 3.2525)
		(-0.0965 -0.0343 3.2525)
		(-0.1214 -0.0253 3.2525)
		(-0.1406 -0.017 3.2525)
		(-0.1538 -0.0098 3.2525)
	)
	BSpline 61 60
	(
		(0.1288 -0.0425 3.2525)
		(0.0869 -0.0525 3.2525)
		(0.0453 -0.0571 3.2525)
	)
	BSpline 56 61
	(
		(0.3679 0.0066 3.2525)
		(0.3549 0.0064 3.2525)
		(0.3358 0.005 3.2525)
		(0.3111 0.0019 3.2525)
		(0.2814 -0.0031 3.2525)
		(0.2474 -0.0104 3.2525)
		(0.2101 -0.0198 3.2525)
	)
	BSpline 65 64
	(
		(0.1963 0.0309 3.5861)
		(0.2314 0.0244 3.5861)
		(0.2634 0.0187 3.5861)
		(0.2913 0.0137 3.5861)
		(0.3145 0.0092 3.5861)
		(0.3324 0.0053 3.5861)
		(0.3446 0.0029 3.5861)
	)
	BSpline 66 65
	(
		(0.0413 0.0513 3.5861)
		(0.0802 0.0506 3.5861)
		(0.1197 0.0455 3.5861)
	)
	BSpline 67 66
	(
		(-0.1442 0.0084 3.5861)
		(-0.1321 0.0167 3.5861)
		(-0.1142 0.0248 3.5861)
		(-0.0911 0.0324 3.5861)
		(-0.0632 0.0394 3.5861)
		(-0.0314 0.045 3.5861)
	)
	BSpline 68 67
	(
		(-0.0308 -0.0471 3.5861)
		(-0.0628 -0.0396 3.5861)
		(-0.0907 -0.0311 3.5861)
		(-0.114 -0.0224 3.5861)
		(-0.1319 -0.0144 3.5861)
		(-0.1441 -0.0075 3.5861)
	)
	BSpline 69 68
	(
		(0.1202 -0.0412 3.5861)
		(0.0808 -0.0501 3.5861)
		(0.0418 -0.0539 3.5861)
	)
	BSpline 64 69
	(
		(0.3446 0.0022 3.5861)
		(0.3325 0.0022 3.5861)
		(0.3145 0.001 3.5861)
		(0.2914 -0.0016 3.5861)
		(0.2635 -0.0059 3.5861)
		(0.2316 -0.0124 3.5861)
		(0.1965 -0.0208 3.5861)
	)
	BSpline 73 72
	(
		(0.1834 0.0271 3.9197)
		(0.2162 0.0208 3.9197)
		(0.2459 0.0152 3.9197)
		(0.2719 0.0103 3.9197)
		(0.2935 0.0058 3.9197)
		(0.3103 0.0021 3.9197)
		(0.3216 -0.0003 3.9197)
	)
	BSpline 74 73
	(
		(0.039 0.0475 3.9197)
		(0.0753 0.0465 3.9197)
		(0.1121 0.0414 3.9197)
	)
	BSpline 75 74
	(
		(-0.1345 0.0091 3.9197)
		(-0.1231 0.0167 3.9197)
		(-0.1064 0.0241 3.9197)
		(-0.0847 0.0311 3.9197)
		(-0.0587 0.0373 3.9197)
		(-0.0289 0.0422 3.9197)
	)
	BSpline 76 75
	(
		(-0.0292 -0.0437 3.9197)
		(-0.0589 -0.0364 3.9197)
		(-0.0849 -0.0282 3.9197)
		(-0.1065 -0.0199 3.9197)
		(-0.1232 -0.0123 3.9197)
		(-0.1346 -0.0058 3.9197)
	)
	BSpline 77 76
	(
		(0.1118 -0.0395 3.9197)
		(0.075 -0.0475 3.9197)
		(0.0386 -0.0507 3.9197)
	)
	BSpline 72 77
	(
		(0.3216 -0.0009 3.9197)
		(0.3102 -0.0009 3.9197)
		(0.2935 -0.0018 3.9197)
		(0.2719 -0.004 3.9197)
		(0.2458 -0.0079 3.9197)
		(0.216 -0.0136 3.9197)
		(0.1832 -0.0212 3.9197)
	)
	BSpline 81 80
	(
		(0.1704 0.0237 4.2533)
		(0.2008 0.0175 4.2533)
		(0.2283 0.0121 4.2533)
		(0.2524 0.0074 4.2533)
		(0.2725 0.003 4.2533)
		(0.2879 -0.0006 4.2533)
		(0.2984 -0.0029 4.2533)
	)
	BSpline 82 81
	(
		(0.0365 0.0437 4.2533)
		(0.0703 0.0426 4.2533)
		(0.1043 0.0376 4.2533)
	)
	BSpline 83 82
	(
		(-0.1247 0.0095 4.2533)
		(-0.1141 0.0165 4.2533)
		(-0.0985 0.0232 4.2533)
		(-0.0784 0.0295 4.2533)
		(-0.0541 0.0351 4.2533)
		(-0.0264 0.0394 4.2533)
	)
	BSpline 84 83
	(
		(-0.0274 -0.0403 4.2533)
		(-0.055 -0.0333 4.2533)
		(-0.079 -0.0255 4.2533)
		(-0.099 -0.0176 4.2533)
		(-0.1144 -0.0104 4.2533)
		(-0.1249 -0.0043 4.2533)
	)
	BSpline 85 84
	(
		(0.1034 -0.0376 4.2533)
		(0.0692 -0.0446 4.2533)
		(0.0354 -0.0473 4.2533)
	)
	BSpline 80 85
	(
		(0.2984 -0.0034 4.2533)
		(0.2879 -0.0033 4.2533)
		(0.2724 -0.004 4.2533)
		(0.2523 -0.0059 4.2533)
		(0.2281 -0.0092 4.2533)
		(0.2004 -0.0144 4.2533)
		(0.1699 -0.0211 4.2533)
	)
	BSpline 89 88
	(
		(0.1573 0.0206 4.5868)
		(0.1852 0.0146 4.5868)
		(0.2106 0.0094 4.5868)
		(0.2328 0.0048 4.5868)
		(0.2512 0.0007 4.5868)
		(0.2654 -0.0027 4.5868)
		(0.2751 -0.0049 4.5868)
	)
	BSpline 90 89
	(
		(0.034 0.0401 4.5868)
		(0.0651 0.0387 4.5868)
		(0.0965 0.0338 4.5868)
	)
	BSpline 91 90
	(
		(-0.1149 0.0097 4.5868)
		(-0.1051 0.0161 4.5868)
		(-0.0906 0.0222 4.5868)
		(-0.072 0.0278 4.5868)
		(-0.0496 0.0327 4.5868)
		(-0.0241 0.0365 4.5868)
	)
	BSpline 92 91
	(
		(-0.0256 -0.0369 4.5868)
		(-0.0509 -0.0303 4.5868)
		(-0.0731 -0.0229 4.5868)
		(-0.0914 -0.0155 4.5868)
		(-0.1056 -0.0087 4.5868)
		(-0.1152 -0.003 4.5868)
	)
	BSpline 93 92
	(
		(0.095 -0.0354 4.5868)
		(0.0634 -0.0417 4.5868)
		(0.0323 -0.0439 4.5868)
	)
	BSpline 88 93
	(
		(0.2751 -0.0055 4.5868)
		(0.2654 -0.0052 4.5868)
		(0.251 -0.0058 4.5868)
		(0.2325 -0.0074 4.5868)
		(0.2102 -0.0103 4.5868)
		(0.1846 -0.0148 4.5868)
		(0.1564 -0.0207 4.5868)
	)
	BSpline 97 96
	(
		(0.1441 0.0176 4.9204)
		(0.1697 0.012 4.9204)
		(0.1929 0.007 4.9204)
		(0.2131 0.0027 4.9204)
		(0.23 -0.0012 4.9204)
		(0.243 -0.0045 4.9204)
		(0.2518 -0.0066 4.9204)
	)
	BSpline 98 97
	(
		(0.0314 0.0364 4.9204)
		(0.0599 0.035 4.9204)
		(0.0886 0.0302 4.9204)
	)
	BSpline 99 98
	(
		(-0.1051 0.0098 4.9204)
		(-0.0961 0.0155 4.9204)
		(-0.0828 0.021 4.9204)
		(-0.0657 0.026 4.9204)
		(-0.0452 0.0303 4.9204)
		(-0.0218 0.0336 4.9204)
	)
	BSpline 100 99
	(
		(-0.0237 -0.0336 4.9204)
		(-0.0469 -0.0273 4.9204)
		(-0.0671 -0.0204 4.9204)
		(-0.0838 -0.0135 4.9204)
		(-0.0967 -0.0072 4.9204)
		(-0.1055 -0.0019 4.9204)
	)
	BSpline 101 100
	(
		(0.0867 -0.0331 4.9204)
		(0.0578 -0.0386 4.9204)
		(0.0292 -0.0404 4.9204)
	)
	BSpline 96 101
	(
		(0.2518 -0.0071 4.9204)
		(0.2429 -0.0068 4.9204)
		(0.2298 -0.0072 4.9204)
		(0.2128 -0.0085 4.9204)
		(0.1923 -0.011 4.9204)
		(0.1689 -0.0149 4.9204)
		(0.1431 -0.0202 4.9204)
	)
	BSpline 105 104
	(
		(0.1398 0.017 5.0289)
		(0.1646 0.0115 5.0289)
		(0.1871 0.0066 5.0289)
		(0.2068 0.0024 5.0289)
		(0.2231 -0.0015 5.0289)
		(0.2357 -0.0046 5.0289)
		(0.2443 -0.0067 5.0289)
	)
	BSpline 106 105
	(
		(0.0305 0.0353 5.0289)
		(0.0581 0.0339 5.0289)
		(0.0859 0.0293 5.0289)
	)
	BSpline 107 106
	(
		(-0.1021 0.0097 5.0289)
		(-0.0933 0.0152 5.0289)
		(-0.0804 0.0205 5.0289)
		(-0.0638 0.0253 5.0289)
		(-0.0439 0.0295 5.0289)
		(-0.0212 0.0327 5.0289)
	)
	BSpline 108 107
	(