// * * * * * * * * * * * * * * * * * * * * * * * * * * * * * * * * * * * * * //
FoamFile
{
	version     2.0;
	format      ascii;
	class       dictionary;
	object      blockMeshDict;
}
// * * * * * * * * * * * * * * * * * * * * * * * * * * * * * * * * * * * * * //
convertToMeters 1;

vertices
(
	(0.1063   	0.0238   	0.5004)		//0
	(0.0571   	0.0928   	0.5004)		//1
	(-0.0086   	0.1086   	0.5004)		//2
	(-0.0571   	0.0928   	0.5004)		//3
	(-0.1063   	0.0238   	0.5004)		//4
	(-0.109   	-0.0   	0.5004)		//5
	(-0.0571   	-0.0928   	0.5004)		//6
	(0.0086   	-0.1086   	0.5004)		//7
	(0.0571   	-0.0928   	0.5004)		//8
	(0.109   	-0.0   	0.5004)		//9
	(1   	0.5   	0.5004)		//10
	(0.5   	0.5   	0.5004)		//11
	(0   	0.5   	0.5004)		//12
	(-0.5   	0.5   	0.5004)		//13
	(-1   	0.5   	0.5004)		//14
	(-1   	-0.5   	0.5004)		//15
	(-0.5   	-0.5   	0.5004)		//16
	(0   	-0.5   	0.5004)		//17
	(0.5   	-0.5   	0.5004)		//18
	(1   	-0.5   	0.5004)		//19
	(0.4633   	0.1732   	1.251)		//20
	(0.3062   	0.1482   	1.251)		//21
	(0.142   	0.1223   	1.251)		//22
	(-0.0193   	0.07   	1.251)		//23
	(-0.2059   	-0.0712   	1.251)		//24
	(-0.204   	-0.0767   	1.251)		//25
	(-0.0196   	-0.0806   	1.251)		//26
	(0.1355   	-0.0299   	1.251)		//27
	(0.2805   	0.0673   	1.251)		//28
	(0.4633   	0.1685   	1.251)		//29
	(1   	0.5   	1.251)		//30
	(0.5   	0.5   	1.251)		//31
	(0   	0.5   	1.251)		//32
	(-0.5   	0.5   	1.251)		//33
	(-1   	0.5   	1.251)		//34
	(-1   	-0.5   	1.251)		//35
	(-0.5   	-0.5   	1.251)		//36
	(0   	-0.5   	1.251)		//37
	(0.5   	-0.5   	1.251)		//38
	(1   	-0.5   	1.251)		//39
	(0.4589   	0.1112   	1.5845)		//40
	(0.3093   	0.1073   	1.5845)		//41
	(0.1498   	0.0993   	1.5845)		//42
	(-0.0568   	0.0519   	1.5845)		//43
	(-0.2042   	-0.0439   	1.5845)		//44
	(-0.2029   	-0.0493   	1.5845)		//45
	(-0.0277   	-0.074   	1.5845)		//46
	(0.1261   	-0.0437   	1.5845)		//47
	(0.2755   	0.0321   	1.5845)		//48
	(0.459   	0.1067   	1.5845)		//49
	(1   	0.5   	1.5845)		//50
	(0.5   	0.5   	1.5845)		//51
	(0   	0.5   	1.5845)		//52
	(-0.5   	0.5   	1.5845)		//53
	(-1   	0.5   	1.5845)		//54
	(-1   	-0.5   	1.5845)		//55
	(-0.5   	-0.5   	1.5845)		//56
	(0   	-0.5   	1.5845)		//57
	(0.5   	-0.5   	1.5845)		//58
	(1   	-0.5   	1.5845)		//59
	(0.4437   	0.0709   	1.9181)		//60
	(0.3014   	0.0757   	1.9181)		//61
	(0.1497   	0.0828   	1.9181)		//62
	(-0.0499   	0.0535   	1.9181)		//63
	(-0.197   	-0.0261   	1.9181)		//64
	(-0.1962   	-0.0314   	1.9181)		//65
	(-0.0319   	-0.068   	1.9181)		//66
	(0.1163   	-0.051   	1.9181)		//67
	(0.2638   	0.0095   	1.9181)		//68
	(0.4437   	0.0666   	1.9181)		//69
	(1   	0.5   	1.9181)		//70
	(0.5   	0.5   	1.9181)		//71
	(0   	0.5   	1.9181)		//72
	(-0.5   	0.5   	1.9181)		//73
	(-1   	0.5   	1.9181)		//74
	(-1   	-0.5   	1.9181)		//75
	(-0.5   	-0.5   	1.9181)		//76
	(0   	-0.5   	1.9181)		//77
	(0.5   	-0.5   	1.9181)		//78
	(1   	-0.5   	1.9181)		//79
	(0.4233   	0.0458   	2.2517)		//80
	(0.2901   	0.0589   	2.2517)		//81
	(0.0959   	0.073   	2.2517)		//82
	(-0.0447   	0.0534   	2.2517)		//83
	(-0.1884   	-0.0147   	2.2517)		//84
	(-0.188   	-0.0198   	2.2517)		//85
	(-0.0338   	-0.063   	2.2517)		//86
	(0.1078   	-0.0544   	2.2517)		//87
	(0.251   	-0.0044   	2.2517)		//88
	(0.4233   	0.0416   	2.2517)		//89
	(1   	0.5   	2.2517)		//90
	(0.5   	0.5   	2.2517)		//91
	(0   	0.5   	2.2517)		//92
	(-0.5   	0.5   	2.2517)		//93
	(-1   	0.5   	2.2517)		//94
	(-1   	-0.5   	2.2517)		//95
	(-0.5   	-0.5   	2.2517)		//96
	(0   	-0.5   	2.2517)		//97
	(0.5   	-0.5   	2.2517)		//98
	(1   	-0.5   	2.2517)		//99
	(0.4012   	0.0274   	2.5853)		//100
	(0.2764   	0.0439   	2.5853)		//101
	(0.0931   	0.0658   	2.5853)		//102
	(-0.0405   	0.052   	2.5853)		//103
	(-0.1788   	-0.0076   	2.5853)		//104
	(-0.1785   	-0.0124   	2.5853)		//105
	(-0.0341   	-0.0585   	2.5853)		//106
	(0.1002   	-0.0551   	2.5853)		//107
	(0.2373   	-0.0126   	2.5853)		//108
	(0.4012   	0.0232   	2.5853)		//109
	(1   	0.5   	2.5853)		//110
	(0.5   	0.5   	2.5853)		//111
	(0   	0.5   	2.5853)		//112
	(-0.5   	0.5   	2.5853)		//113
	(-1   	0.5   	2.5853)		//114
	(-1   	-0.5   	2.5853)		//115
	(-0.5   	-0.5   	2.5853)		//116
	(0   	-0.5   	2.5853)		//117
	(0.5   	-0.5   	2.5853)		//118
	(1   	-0.5   	2.5853)		//119
	(0.378   	0.0181   	2.9189)		//120
	(0.2216   	0.0421   	2.9189)		//121
	(0.0894   	0.06   	2.9189)		//122
	(-0.037   	0.05   	2.9189)		//123
	(-0.1689   	-0.0031   	2.9189)		//124
	(-0.1687   	-0.0076   	2.9189)		//125
	(-0.0335   	-0.0544   	2.9189)		//126
	(0.0932   	-0.0542   	2.9189)		//127
	(0.2236   	-0.0173   	2.9189)		//128
	(0.378   	0.0136   	2.9189)		//129
	(1   	0.5   	2.9189)		//130
	(0.5   	0.5   	2.9189)		//131
	(0   	0.5   	2.9189)		//132
	(-0.5   	0.5   	2.9189)		//133
	(-1   	0.5   	2.9189)		//134
	(-1   	-0.5   	2.9189)		//135
	(-0.5   	-0.5   	2.9189)		//136
	(0   	-0.5   	2.9189)		//137
	(0.5   	-0.5   	2.9189)		//138
	(1   	-0.5   	2.9189)		//139
	(0.3548   	0.01   	3.2525)		//140
	(0.2091   	0.0354   	3.2525)		//141
	(0.085   	0.055   	3.2525)		//142
	(-0.034   	0.0476   	3.2525)		//143
	(-0.1589   	-0.0003   	3.2525)		//144
	(-0.1588   	-0.0045   	3.2525)		//145
	(-0.0323   	-0.0506   	3.2525)		//146
	(0.0869   	-0.0525   	3.2525)		//147
	(0.2101   	-0.0198   	3.2525)		//148
	(0.3548   	0.0059   	3.2525)		//149
	(1   	0.5   	3.2525)		//150
	(0.5   	0.5   	3.2525)		//151
	(0   	0.5   	3.2525)		//152
	(-0.5   	0.5   	3.2525)		//153
	(-1   	0.5   	3.2525)		//154
	(-1   	-0.5   	3.2525)		//155
	(-0.5   	-0.5   	3.2525)		//156
	(0   	-0.5   	3.2525)		//157
	(0.5   	-0.5   	3.2525)		//158
	(1   	-0.5   	3.2525)		//159
	(0.3312   	0.0062   	3.5861)		//160
	(0.1963   	0.0309   	3.5861)		//161
	(0.0802   	0.0506   	3.5861)		//162
	(-0.0314   	0.045   	3.5861)		//163
	(-0.1488   	0.0015   	3.5861)		//164
	(-0.1488   	-0.0025   	3.5861)		//165
	(-0.0308   	-0.0471   	3.5861)		//166
	(0.0808   	-0.0501   	3.5861)		//167
	(0.1965   	-0.0208   	3.5861)		//168
	(0.3312   	0.0021   	3.5861)		//169
	(1   	0.5   	3.5861)		//170
	(0.5   	0.5   	3.5861)		//171
	(0   	0.5   	3.5861)		//172
	(-0.5   	0.5   	3.5861)		//173
	(-1   	0.5   	3.5861)		//174
	(-1   	-0.5   	3.5861)		//175
	(-0.5   	-0.5   	3.5861)		//176
	(0   	-0.5   	3.5861)		//177
	(0.5   	-0.5   	3.5861)		//178
	(1   	-0.5   	3.5861)		//179
	(0.3076   	0.0029   	3.9197)		//180
	(0.1834   	0.0271   	3.9197)		//181
	(0.0753   	0.0465   	3.9197)		//182
	(-0.0289   	0.0422   	3.9197)		//183
	(-0.1389   	0.0027   	3.9197)		//184
	(-0.1389   	-0.001   	3.9197)		//185
	(-0.0292   	-0.0437   	3.9197)		//186
	(0.075   	-0.0475   	3.9197)		//187
	(0.1832   	-0.0212   	3.9197)		//188
	(0.3076   	-0.0011   	3.9197)		//189
	(1   	0.5   	3.9197)		//190
	(0.5   	0.5   	3.9197)		//191
	(0   	0.5   	3.9197)		//192
	(-0.5   	0.5   	3.9197)		//193
	(-1   	0.5   	3.9197)		//194
	(-1   	-0.5   	3.9197)		//195
	(-0.5   	-0.5   	3.9197)		//196
	(0   	-0.5   	3.9197)		//197
	(0.5   	-0.5   	3.9197)		//198
	(1   	-0.5   	3.9197)		//199
	(0.284   	0.0005   	4.2533)		//200
	(0.1704   	0.0237   	4.2533)		//201
	(0.0703   	0.0426   	4.2533)		//202
	(-0.0264   	0.0394   	4.2533)		//203
	(-0.1288   	0.0036   	4.2533)		//204
	(-0.1289   	0.0001   	4.2533)		//205
	(-0.0274   	-0.0403   	4.2533)		//206
	(0.0692   	-0.0446   	4.2533)		//207
	(0.1699   	-0.0211   	4.2533)		//208
	(0.284   	-0.0036   	4.2533)		//209
	(1   	0.5   	4.2533)		//210
	(0.5   	0.5   	4.2533)		//211
	(0   	0.5   	4.2533)		//212
	(-0.5   	0.5   	4.2533)		//213
	(-1   	0.5   	4.2533)		//214
	(-1   	-0.5   	4.2533)		//215
	(-0.5   	-0.5   	4.2533)		//216
	(0   	-0.5   	4.2533)		//217
	(0.5   	-0.5   	4.2533)		//218
	(1   	-0.5   	4.2533)		//219
	(0.2604   	-0.0011   	4.5868)		//220
	(0.1573   	0.0209   	4.5868)		//221
	(0.0651   	0.0387   	4.5868)		//222
	(-0.0241   	0.0365   	4.5868)		//223
	(-0.1187   	0.0043   	4.5868)		//224
	(-0.1188   	0.0011   	4.5868)		//225
	(-0.0256   	-0.0369   	4.5868)		//226
	(0.0634   	-0.0417   	4.5868)		//227
	(0.1564   	-0.0207   	4.5868)		//228
	(0.2604   	-0.0052   	4.5868)		//229
	(1   	0.5   	4.5868)		//230
	(0.5   	0.5   	4.5868)		//231
	(0   	0.5   	4.5868)		//232
	(-0.5   	0.5   	4.5868)		//233
	(-1   	0.5   	4.5868)		//234
	(-1   	-0.5   	4.5868)		//235
	(-0.5   	-0.5   	4.5868)		//236
	(0   	-0.5   	4.5868)		//237
	(0.5   	-0.5   	4.5868)		//238
	(1   	-0.5   	4.5868)		//239
	(0.2368   	-0.0027   	4.9204)		//240
	(0.1441   	0.0176   	4.9204)		//241
	(0.0599   	0.035   	4.9204)		//242
	(-0.0218   	0.0336   	4.9204)		//243
	(-0.1087   	0.0048   	4.9204)		//244
	(-0.1088   	0.0019   	4.9204)		//245
	(-0.0237   	-0.0336   	4.9204)		//246
	(0.0578   	-0.0386   	4.9204)		//247
	(0.1431   	-0.0203   	4.9204)		//248
	(0.2368   	-0.0067   	4.9204)		//249
	(1   	0.5   	4.9204)		//250
	(0.5   	0.5   	4.9204)		//251
	(0   	0.5   	4.9204)		//252
	(-0.5   	0.5   	4.9204)		//253
	(-1   	0.5   	4.9204)		//254
	(-1   	-0.5   	4.9204)		//255
	(-0.5   	-0.5   	4.9204)		//256
	(0   	-0.5   	4.9204)		//257
	(0.5   	-0.5   	4.9204)		//258
	(1   	-0.5   	4.9204)		//259
	(0.2291   	-0.0031   	5.0289)		//260
	(0.1398   	0.017   	5.0289)		//261
	(0.0581   	0.0339   	5.0289)		//262
	(-0.0212   	0.0327   	5.0289)		//263
	(-0.1055   	0.0049   	5.0289)		//264
	(-0.1056   	0.002   	5.0289)		//265
	(-0.0231   	-0.0325   	5.0289)		//266
	(0.0559   	-0.0379   	5.0289)		//267
	(0.1387   	-0.0201   	5.0289)		//268
	(0.2291   	-0.0072   	5.0289)		//269
	(1   	0.5   	5.0289)		//270
	(0.5   	0.5   	5.0289)		//271
	(0   	0.5   	5.0289)		//272
	(-0.5   	0.5   	5.0289)		//273
	(-1   	0.5   	5.0289)		//274
	(-1   	-0.5   	5.0289)		//275
	(-0.5   	-0.5   	5.0289)		//276
	(0   	-0.5   	5.0289)		//277
	(0.5   	-0.5   	5.0289)		//278
	(1   	-0.5   	5.0289)		//279
	(-0.1063   	0.0238   	-0.5004)		//280
	(-0.0571   	0.0928   	-0.5004)		//281
	(0.0086   	0.1086   	-0.5004)		//282
	(0.0571   	0.0928   	-0.5004)		//283
	(0.1063   	0.0238   	-0.5004)		//284
	(0.109   	-0.0   	-0.5004)		//285
	(0.0571   	-0.0928   	-0.5004)		//286
	(-0.0086   	-0.1086   	-0.5004)		//287
	(-0.0571   	-0.0928   	-0.5004)		//288
	(-0.109   	-0.0   	-0.5004)		//289
	(-1.0   	0.5   	-0.5004)		//290
	(-0.5   	0.5   	-0.5004)		//291
	(-0.0   	0.5   	-0.5004)		//292
	(0.5   	0.5   	-0.5004)		//293
	(1.0   	0.5   	-0.5004)		//294
	(1.0   	-0.5   	-0.5004)		//295
	(0.5   	-0.5   	-0.5004)		//296
	(-0.0   	-0.5   	-0.5004)		//297
	(-0.5   	-0.5   	-0.5004)		//298
	(-1.0   	-0.5   	-0.5004)		//299
	(-0.4633   	0.1732   	-1.251)		//300
	(-0.3062   	0.1482   	-1.251)		//301
	(-0.142   	0.1223   	-1.251)		//302
	(0.0193   	0.07   	-1.251)		//303
	(0.2059   	-0.0712   	-1.251)		//304
	(0.204   	-0.0767   	-1.251)		//305
	(0.0196   	-0.0806   	-1.251)		//306
	(-0.1355   	-0.0299   	-1.251)		//307
	(-0.2805   	0.0673   	-1.251)		//308
	(-0.4633   	0.1685   	-1.251)		//309
	(-1.0   	0.5   	-1.251)		//310
	(-0.5   	0.5   	-1.251)		//311
	(-0.0   	0.5   	-1.251)		//312
	(0.5   	0.5   	-1.251)		//313
	(1.0   	0.5   	-1.251)		//314
	(1.0   	-0.5   	-1.251)		//315
	(0.5   	-0.5   	-1.251)		//316
	(-0.0   	-0.5   	-1.251)		//317
	(-0.5   	-0.5   	-1.251)		//318
	(-1.0   	-0.5   	-1.251)		//319
	(-0.4589   	0.1112   	-1.5845)		//320
	(-0.3093   	0.1073   	-1.5845)		//321
	(-0.1498   	0.0993   	-1.5845)		//322
	(0.0568   	0.0519   	-1.5845)		//323
	(0.2042   	-0.0439   	-1.5845)		//324
	(0.2029   	-0.0493   	-1.5845)		//325
	(0.0277   	-0.074   	-1.5845)		//326
	(-0.1261   	-0.0437   	-1.5845)		//327
	(-0.2755   	0.0321   	-1.5845)		//328
	(-0.459   	0.1067   	-1.5845)		//329
	(-1.0   	0.5   	-1.5845)		//330
	(-0.5   	0.5   	-1.5845)		//331
	(-0.0   	0.5   	-1.5845)		//332
	(0.5   	0.5   	-1.5845)		//333
	(1.0   	0.5   	-1.5845)		//334
	(1.0   	-0.5   	-1.5845)		//335
	(0.5   	-0.5   	-1.5845)		//336
	(-0.0   	-0.5   	-1.5845)		//337
	(-0.5   	-0.5   	-1.5845)		//338
	(-1.0   	-0.5   	-1.5845)		//339
	(-0.4437   	0.0709   	-1.9181)		//340
	(-0.3014   	0.0757   	-1.9181)		//341
	(-0.1497   	0.0828   	-1.9181)		//342
	(0.0499   	0.0535   	-1.9181)		//343
	(0.197   	-0.0261   	-1.9181)		//344
	(0.1962   	-0.0314   	-1.9181)		//345
	(0.0319   	-0.068   	-1.9181)		//346
	(-0.1163   	-0.051   	-1.9181)		//347
	(-0.2638   	0.0095   	-1.9181)		//348
	(-0.4437   	0.0666   	-1.9181)		//349
	(-1.0   	0.5   	-1.9181)		//350
	(-0.5   	0.5   	-1.9181)		//351
	(-0.0   	0.5   	-1.9181)		//352
	(0.5   	0.5   	-1.9181)		//353
	(1.0   	0.5   	-1.9181)		//354
	(1.0   	-0.5   	-1.9181)		//355
	(0.5   	-0.5   	-1.9181)		//356
	(-0.0   	-0.5   	-1.9181)		//357
	(-0.5   	-0.5   	-1.9181)		//358
	(-1.0   	-0.5   	-1.9181)		//359
	(-0.4233   	0.0458   	-2.2517)		//360
	(-0.2901   	0.0589   	-2.2517)		//361
	(-0.0959   	0.073   	-2.2517)		//362
	(0.0447   	0.0534   	-2.2517)		//363
	(0.1884   	-0.0147   	-2.2517)		//364
	(0.188   	-0.0198   	-2.2517)		//365
	(0.0338   	-0.063   	-2.2517)		//366
	(-0.1078   	-0.0544   	-2.2517)		//367
	(-0.251   	-0.0044   	-2.2517)		//368
	(-0.4233   	0.0416   	-2.2517)		//369
	(-1.0   	0.5   	-2.2517)		//370
	(-0.5   	0.5   	-2.2517)		//371
	(-0.0   	0.5   	-2.2517)		//372
	(0.5   	0.5   	-2.2517)		//373
	(1.0   	0.5   	-2.2517)		//374
	(1.0   	-0.5   	-2.2517)		//375
	(0.5   	-0.5   	-2.2517)		//376
	(-0.0   	-0.5   	-2.2517)		//377
	(-0.5   	-0.5   	-2.2517)		//378
	(-1.0   	-0.5   	-2.2517)		//379
	(-0.4012   	0.0274   	-2.5853)		//380
	(-0.2764   	0.0439   	-2.5853)		//381
	(-0.0931   	0.0658   	-2.5853)		//382
	(0.0405   	0.052   	-2.5853)		//383
	(0.1788   	-0.0076   	-2.5853)		//384
	(0.1785   	-0.0124   	-2.5853)		//385
	(0.0341   	-0.0585   	-2.5853)		//386
	(-0.1002   	-0.0551   	-2.5853)		//387
	(-0.2373   	-0.0126   	-2.5853)		//388
	(-0.4012   	0.0232   	-2.5853)		//389
	(-1.0   	0.5   	-2.5853)		//390
	(-0.5   	0.5   	-2.5853)		//391
	(-0.0   	0.5   	-2.5853)		//392
	(0.5   	0.5   	-2.5853)		//393
	(1.0   	0.5   	-2.5853)		//394
	(1.0   	-0.5   	-2.5853)		//395
	(0.5   	-0.5   	-2.5853)		//396
	(-0.0   	-0.5   	-2.5853)		//397
	(-0.5   	-0.5   	-2.5853)		//398
	(-1.0   	-0.5   	-2.5853)		//399
	(-0.378   	0.0181   	-2.9189)		//400
	(-0.2216   	0.0421   	-2.9189)		//401
	(-0.0894   	0.06   	-2.9189)		//402
	(0.037   	0.05   	-2.9189)		//403
	(0.1689   	-0.0031   	-2.9189)		//404
	(0.1687   	-0.0076   	-2.9189)		//405
	(0.0335   	-0.0544   	-2.9189)		//406
	(-0.0932   	-0.0542   	-2.9189)		//407
	(-0.2236   	-0.0173   	-2.9189)		//408
	(-0.378   	0.0136   	-2.9189)		//409
	(-1.0   	0.5   	-2.9189)		//410
	(-0.5   	0.5   	-2.9189)		//411
	(-0.0   	0.5   	-2.9189)		//412
	(0.5   	0.5   	-2.9189)		//413
	(1.0   	0.5   	-2.9189)		//414
	(1.0   	-0.5   	-2.9189)		//415
	(0.5   	-0.5   	-2.9189)		//416
	(-0.0   	-0.5   	-2.9189)		//417
	(-0.5   	-0.5   	-2.9189)		//418
	(-1.0   	-0.5   	-2.9189)		//419
	(-0.3548   	0.01   	-3.2525)		//420
	(-0.2091   	0.0354   	-3.2525)		//421
	(-0.085   	0.055   	-3.2525)		//422
	(0.034   	0.0476   	-3.2525)		//423
	(0.1589   	-0.0003   	-3.2525)		//424
	(0.1588   	-0.0045   	-3.2525)		//425
	(0.0323   	-0.0506   	-3.2525)		//426
	(-0.0869   	-0.0525   	-3.2525)		//427
	(-0.2101   	-0.0198   	-3.2525)		//428
	(-0.3548   	0.0059   	-3.2525)		//429
	(-1.0   	0.5   	-3.2525)		//430
	(-0.5   	0.5   	-3.2525)		//431
	(-0.0   	0.5   	-3.2525)		//432
	(0.5   	0.5   	-3.2525)		//433
	(1.0   	0.5   	-3.2525)		//434
	(1.0   	-0.5   	-3.2525)		//435
	(0.5   	-0.5   	-3.2525)		//436
	(-0.0   	-0.5   	-3.2525)		//437
	(-0.5   	-0.5   	-3.2525)		//438
	(-1.0   	-0.5   	-3.2525)		//439
	(-0.3312   	0.0062   	-3.5861)		//440
	(-0.1963   	0.0309   	-3.5861)		//441
	(-0.0802   	0.0506   	-3.5861)		//442
	(0.0314   	0.045   	-3.5861)		//443
	(0.1488   	0.0015   	-3.5861)		//444
	(0.1488   	-0.0025   	-3.5861)		//445
	(0.0308   	-0.0471   	-3.5861)		//446
	(-0.0808   	-0.0501   	-3.5861)		//447
	(-0.1965   	-0.0208   	-3.5861)		//448
	(-0.3312   	0.0021   	-3.5861)		//449
	(-1.0   	0.5   	-3.5861)		//450
	(-0.5   	0.5   	-3.5861)		//451
	(-0.0   	0.5   	-3.5861)		//452
	(0.5   	0.5   	-3.5861)		//453
	(1.0   	0.5   	-3.5861)		//454
	(1.0   	-0.5   	-3.5861)		//455
	(0.5   	-0.5   	-3.5861)		//456
	(-0.0   	-0.5   	-3.5861)		//457
	(-0.5   	-0.5   	-3.5861)		//458
	(-1.0   	-0.5   	-3.5861)		//459
	(-0.3076   	0.0029   	-3.9197)		//460
	(-0.1834   	0.0271   	-3.9197)		//461
	(-0.0753   	0.0465   	-3.9197)		//462
	(0.0289   	0.0422   	-3.9197)		//463
	(0.1389   	0.0027   	-3.9197)		//464
	(0.1389   	-0.001   	-3.9197)		//465
	(0.0292   	-0.0437   	-3.9197)		//466
	(-0.075   	-0.0475   	-3.9197)		//467
	(-0.1832   	-0.0212   	-3.9197)		//468
	(-0.3076   	-0.0011   	-3.9197)		//469
	(-1.0   	0.5   	-3.9197)		//470
	(-0.5   	0.5   	-3.9197)		//471
	(-0.0   	0.5   	-3.9197)		//472
	(0.5   	0.5   	-3.9197)		//473
	(1.0   	0.5   	-3.9197)		//474
	(1.0   	-0.5   	-3.9197)		//475
	(0.5   	-0.5   	-3.9197)		//476
	(-0.0   	-0.5   	-3.9197)		//477
	(-0.5   	-0.5   	-3.9197)		//478
	(-1.0   	-0.5   	-3.9197)		//479
	(-0.284   	0.0005   	-4.2533)		//480
	(-0.1704   	0.0237   	-4.2533)		//481
	(-0.0703   	0.0426   	-4.2533)		//482
	(0.0264   	0.0394   	-4.2533)		//483
	(0.1288   	0.0036   	-4.2533)		//484
	(0.1289   	0.0001   	-4.2533)		//485
	(0.0274   	-0.0403   	-4.2533)		//486
	(-0.0692   	-0.0446   	-4.2533)		//487
	(-0.1699   	-0.0211   	-4.2533)		//488
	(-0.284   	-0.0036   	-4.2533)		//489
	(-1.0   	0.5   	-4.2533)		//490
	(-0.5   	0.5   	-4.2533)		//491
	(-0.0   	0.5   	-4.2533)		//492
	(0.5   	0.5   	-4.2533)		//493
	(1.0   	0.5   	-4.2533)		//494
	(1.0   	-0.5   	-4.2533)		//495
	(0.5   	-0.5   	-4.2533)		//496
	(-0.0   	-0.5   	-4.2533)		//497
	(-0.5   	-0.5   	-4.2533)		//498
	(-1.0   	-0.5   	-4.2533)		//499
	(-0.2604   	-0.0011   	-4.5868)		//500
	(-0.1573   	0.0209   	-4.5868)		//501
	(-0.0651   	0.0387   	-4.5868)		//502
	(0.0241   	0.0365   	-4.5868)		//503
	(0.1187   	0.0043   	-4.5868)		//504
	(0.1188   	0.0011   	-4.5868)		//505
	(0.0256   	-0.0369   	-4.5868)		//506
	(-0.0634   	-0.0417   	-4.5868)		//507
	(-0.1564   	-0.0207   	-4.5868)		//508
	(-0.2604   	-0.0052   	-4.5868)		//509
	(-1.0   	0.5   	-4.5868)		//510
	(-0.5   	0.5   	-4.5868)		//511
	(-0.0   	0.5   	-4.5868)		//512
	(0.5   	0.5   	-4.5868)		//513
	(1.0   	0.5   	-4.5868)		//514
	(1.0   	-0.5   	-4.5868)		//515
	(0.5   	-0.5   	-4.5868)		//516
	(-0.0   	-0.5   	-4.5868)		//517
	(-0.5   	-0.5   	-4.5868)		//518
	(-1.0   	-0.5   	-4.5868)		//519
	(-0.2368   	-0.0027   	-4.9204)		//520
	(-0.1441   	0.0176   	-4.9204)		//521
	(-0.0599   	0.035   	-4.9204)		//522
	(0.0218   	0.0336   	-4.9204)		//523
	(0.1087   	0.0048   	-4.9204)		//524
	(0.1088   	0.0019   	-4.9204)		//525
	(0.0237   	-0.0336   	-4.9204)		//526
	(-0.0578   	-0.0386   	-4.9204)		//527
	(-0.1431   	-0.0203   	-4.9204)		//528
	(-0.2368   	-0.0067   	-4.9204)		//529
	(-1.0   	0.5   	-4.9204)		//530
	(-0.5   	0.5   	-4.9204)		//531
	(-0.0   	0.5   	-4.9204)		//532
	(0.5   	0.5   	-4.9204)		//533
	(1.0   	0.5   	-4.9204)		//534
	(1.0   	-0.5   	-4.9204)		//535
	(0.5   	-0.5   	-4.9204)		//536
	(-0.0   	-0.5   	-4.9204)		//537
	(-0.5   	-0.5   	-4.9204)		//538
	(-1.0   	-0.5   	-4.9204)		//539
	(-0.2291   	-0.0031   	-5.0289)		//540
	(-0.1398   	0.017   	-5.0289)		//541
	(-0.0581   	0.0339   	-5.0289)		//542
	(0.0212   	0.0327   	-5.0289)		//543
	(0.1055   	0.0049   	-5.0289)		//544
	(0.1056   	0.002   	-5.0289)		//545
	(0.0231   	-0.0325   	-5.0289)		//546
	(-0.0559   	-0.0379   	-5.0289)		//547
	(-0.1387   	-0.0201   	-5.0289)		//548
	(-0.2291   	-0.0072   	-5.0289)		//549
	(-1.0   	0.5   	-5.0289)		//550
	(-0.5   	0.5   	-5.0289)		//551
	(-0.0   	0.5   	-5.0289)		//552
	(0.5   	0.5   	-5.0289)		//553
	(1.0   	0.5   	-5.0289)		//554
	(1.0   	-0.5   	-5.0289)		//555
	(0.5   	-0.5   	-5.0289)		//556
	(-0.0   	-0.5   	-5.0289)		//557
	(-0.5   	-0.5   	-5.0289)		//558
	(-1.0   	-0.5   	-5.0289)		//559
);

blocks
(
	hex (0 9 19 10 20 29 39 30) rotatingZone (12 10 11) simpleGrading (1 1 1)
	hex (1 0 10 11 21 20 30 31) rotatingZone (6 10 11) simpleGrading (1 1 1)
	hex (2 1 11 12 22 21 31 32) rotatingZone (6 10 11) simpleGrading (1 1 1)
	hex (3 2 12 13 23 22 32 33) rotatingZone (6 10 11) simpleGrading (1 1 1)
	hex (4 3 13 14 24 23 33 34) rotatingZone (6 10 11) simpleGrading (1 1 1)
	hex (5 4 14 15 25 24 34 35) rotatingZone (12 10 11) simpleGrading (1 1 1)
	hex (6 5 15 16 26 25 35 36) rotatingZone (6 10 11) simpleGrading (1 1 1)
	hex (7 6 16 17 27 26 36 37) rotatingZone (6 10 11) simpleGrading (1 1 1)
	hex (8 7 17 18 28 27 37 38) rotatingZone (6 10 11) simpleGrading (1 1 1)
	hex (9 8 18 19 29 28 38 39) rotatingZone (6 10 11) simpleGrading (1 1 1)
	hex (20 29 39 30 40 49 59 50) rotatingZone (12 10 5) simpleGrading (1 1 1)
	hex (21 20 30 31 41 40 50 51) rotatingZone (6 10 5) simpleGrading (1 1 1)
	hex (22 21 31 32 42 41 51 52) rotatingZone (6 10 5) simpleGrading (1 1 1)
	hex (23 22 32 33 43 42 52 53) rotatingZone (6 10 5) simpleGrading (1 1 1)
	hex (24 23 33 34 44 43 53 54) rotatingZone (6 10 5) simpleGrading (1 1 1)
	hex (25 24 34 35 45 44 54 55) rotatingZone (12 10 5) simpleGrading (1 1 1)
	hex (26 25 35 36 46 45 55 56) rotatingZone (6 10 5) simpleGrading (1 1 1)
	hex (27 26 36 37 47 46 56 57) rotatingZone (6 10 5) simpleGrading (1 1 1)
	hex (28 27 37 38 48 47 57 58) rotatingZone (6 10 5) simpleGrading (1 1 1)
	hex (29 28 38 39 49 48 58 59) rotatingZone (6 10 5) simpleGrading (1 1 1)
	hex (40 49 59 50 60 69 79 70) rotatingZone (12 10 5) simpleGrading (1 1 1)
	hex (41 40 50 51 61 60 70 71) rotatingZone (6 10 5) simpleGrading (1 1 1)
	hex (42 41 51 52 62 61 71 72) rotatingZone (6 10 5) simpleGrading (1 1 1)
	hex (43 42 52 53 63 62 72 73) rotatingZone (6 10 5) simpleGrading (1 1 1)
	hex (44 43 53 54 64 63 73 74) rotatingZone (6 10 5) simpleGrading (1 1 1)
	hex (45 44 54 55 65 64 74 75) rotatingZone (12 10 5) simpleGrading (1 1 1)
	hex (46 45 55 56 66 65 75 76) rotatingZone (6 10 5) simpleGrading (1 1 1)
	hex (47 46 56 57 67 66 76 77) rotatingZone (6 10 5) simpleGrading (1 1 1)
	hex (48 47 57 58 68 67 77 78) rotatingZone (6 10 5) simpleGrading (1 1 1)
	hex (49 48 58 59 69 68 78 79) rotatingZone (6 10 5) simpleGrading (1 1 1)
	hex (60 69 79 70 80 89 99 90) rotatingZone (12 10 5) simpleGrading (1 1 1)
	hex (61 60 70 71 81 80 90 91) rotatingZone (6 10 5) simpleGrading (1 1 1)
	hex (62 61 71 72 82 81 91 92) rotatingZone (6 10 5) simpleGrading (1 1 1)
	hex (63 62 72 73 83 82 92 93) rotatingZone (6 10 5) simpleGrading (1 1 1)
	hex (64 63 73 74 84 83 93 94) rotatingZone (6 10 5) simpleGrading (1 1 1)
	hex (65 64 74 75 85 84 94 95) rotatingZone (12 10 5) simpleGrading (1 1 1)
	hex (66 65 75 76 86 85 95 96) rotatingZone (6 10 5) simpleGrading (1 1 1)
	hex (67 66 76 77 87 86 96 97) rotatingZone (6 10 5) simpleGrading (1 1 1)
	hex (68 67 77 78 88 87 97 98) rotatingZone (6 10 5) simpleGrading (1 1 1)
	hex (69 68 78 79 89 88 98 99) rotatingZone (6 10 5) simpleGrading (1 1 1)
	hex (80 89 99 90 100 109 119 110) rotatingZone (12 10 5) simpleGrading (1 1 1)
	hex (81 80 90 91 101 100 110 111) rotatingZone (6 10 5) simpleGrading (1 1 1)
	hex (82 81 91 92 102 101 111 112) rotatingZone (6 10 5) simpleGrading (1 1 1)
	hex (83 82 92 93 103 102 112 113) rotatingZone (6 10 5) simpleGrading (1 1 1)
	hex (84 83 93 94 104 103 113 114) rotatingZone (6 10 5) simpleGrading (1 1 1)
	hex (85 84 94 95 105 104 114 115) rotatingZone (12 10 5) simpleGrading (1 1 1)
	hex (86 85 95 96 106 105 115 116) rotatingZone (6 10 5) simpleGrading (1 1 1)
	hex (87 86 96 97 107 106 116 117) rotatingZone (6 10 5) simpleGrading (1 1 1)
	hex (88 87 97 98 108 107 117 118) rotatingZone (6 10 5) simpleGrading (1 1 1)
	hex (89 88 98 99 109 108 118 119) rotatingZone (6 10 5) simpleGrading (1 1 1)
	hex (100 109 119 110 120 129 139 130) rotatingZone (12 10 5) simpleGrading (1 1 1)
	hex (101 100 110 111 121 120 130 131) rotatingZone (6 10 5) simpleGrading (1 1 1)
	hex (102 101 111 112 122 121 131 132) rotatingZone (6 10 5) simpleGrading (1 1 1)
	hex (103 102 112 113 123 122 132 133) rotatingZone (6 10 5) simpleGrading (1 1 1)
	hex (104 103 113 114 124 123 133 134) rotatingZone (6 10 5) simpleGrading (1 1 1)
	hex (105 104 114 115 125 124 134 135) rotatingZone (12 10 5) simpleGrading (1 1 1)
	hex (106 105 115 116 126 125 135 136) rotatingZone (6 10 5) simpleGrading (1 1 1)
	hex (107 106 116 117 127 126 136 137) rotatingZone (6 10 5) simpleGrading (1 1 1)
	hex (108 107 117 118 128 127 137 138) rotatingZone (6 10 5) simpleGrading (1 1 1)
	hex (109 108 118 119 129 128 138 139) rotatingZone (6 10 5) simpleGrading (1 1 1)
	hex (120 129 139 130 140 149 159 150) rotatingZone (12 10 5) simpleGrading (1 1 1)
	hex (121 120 130 131 141 140 150 151) rotatingZone (6 10 5) simpleGrading (1 1 1)
	hex (122 121 131 132 142 141 151 152) rotatingZone (6 10 5) simpleGrading (1 1 1)
	hex (123 122 132 133 143 142 152 153) rotatingZone (6 10 5) simpleGrading (1 1 1)
	hex (124 123 133 134 144 143 153 154) rotatingZone (6 10 5) simpleGrading (1 1 1)
	hex (125 124 134 135 145 144 154 155) rotatingZone (12 10 5) simpleGrading (1 1 1)
	hex (126 125 135 136 146 145 155 156) rotatingZone (6 10 5) simpleGrading (1 1 1)
	hex (127 126 136 137 147 146 156 157) rotatingZone (6 10 5) simpleGrading (1 1 1)
	hex (128 127 137 138 148 147 157 158) rotatingZone (6 10 5) simpleGrading (1 1 1)
	hex (129 128 138 139 149 148 158 159) rotatingZone (6 10 5) simpleGrading (1 1 1)
	hex (140 149 159 150 160 169 179 170) rotatingZone (12 10 5) simpleGrading (1 1 1)
	hex (141 140 150 151 161 160 170 171) rotatingZone (6 10 5) simpleGrading (1 1 1)
	hex (142 141 151 152 162 161 171 172) rotatingZone (6 10 5) simpleGrading (1 1 1)
	hex (143 142 152 153 163 162 172 173) rotatingZone (6 10 5) simpleGrading (1 1 1)
	hex (144 143 153 154 164 163 173 174) rotatingZone (6 10 5) simpleGrading (1 1 1)
	hex (145 144 154 155 165 164 174 175) rotatingZone (12 10 5) simpleGrading (1 1 1)
	hex (146 145 155 156 166 165 175 176) rotatingZone (6 10 5) simpleGrading (1 1 1)
	hex (147 146 156 157 167 166 176 177) rotatingZone (6 10 5) simpleGrading (1 1 1)
	hex (148 147 157 158 168 167 177 178) rotatingZone (6 10 5) simpleGrading (1 1 1)
	hex (149 148 158 159 169 168 178 179) rotatingZone (6 10 5) simpleGrading (1 1 1)
	hex (160 169 179 170 180 189 199 190) rotatingZone (12 10 5) simpleGrading (1 1 1)
	hex (161 160 170 171 181 180 190 191) rotatingZone (6 10 5) simpleGrading (1 1 1)
	hex (162 161 171 172 182 181 191 192) rotatingZone (6 10 5) simpleGrading (1 1 1)
	hex (163 162 172 173 183 182 192 193) rotatingZone (6 10 5) simpleGrading (1 1 1)
	hex (164 163 173 174 184 183 193 194) rotatingZone (6 10 5) simpleGrading (1 1 1)
	hex (165 164 174 175 185 184 194 195) rotatingZone (12 10 5) simpleGrading (1 1 1)
	hex (166 165 175 176 186 185 195 196) rotatingZone (6 10 5) simpleGrading (1 1 1)
	hex (167 166 176 177 187 186 196 197) rotatingZone (6 10 5) simpleGrading (1 1 1)
	hex (168 167 177 178 188 187 197 198) rotatingZone (6 10 5) simpleGrading (1 1 1)
	hex (169 168 178 179 189 188 198 199) rotatingZone (6 10 5) simpleGrading (1 1 1)
	hex (180 189 199 190 200 209 219 210) rotatingZone (12 10 5) simpleGrading (1 1 1)
	hex (181 180 190 191 201 200 210 211) rotatingZone (6 10 5) simpleGrading (1 1 1)
	hex (182 181 191 192 202 201 211 212) rotatingZone (6 10 5) simpleGrading (1 1 1)
	hex (183 182 192 193 203 202 212 213) rotatingZone (6 10 5) simpleGrading (1 1 1)
	hex (184 183 193 194 204 203 213 214) rotatingZone (6 10 5) simpleGrading (1 1 1)
	hex (185 184 194 195 205 204 214 215) rotatingZone (12 10 5) simpleGrading (1 1 1)
	hex (186 185 195 196 206 205 215 216) rotatingZone (6 10 5) simpleGrading (1 1 1)
	hex (187 186 196 197 207 206 216 217) rotatingZone (6 10 5) simpleGrading (1 1 1)
	hex (188 187 197 198 208 207 217 218) rotatingZone (6 10 5) simpleGrading (1 1 1)
	hex (189 188 198 199 209 208 218 219) rotatingZone (6 10 5) simpleGrading (1 1 1)
	hex (200 209 219 210 220 229 239 230) rotatingZone (12 10 5) simpleGrading (1 1 1)
	hex (201 200 210 211 221 220 230 231) rotatingZone (6 10 5) simpleGrading (1 1 1)
	hex (202 201 211 212 222 221 231 232) rotatingZone (6 10 5) simpleGrading (1 1 1)
	hex (203 202 212 213 223 222 232 233) rotatingZone (6 10 5) simpleGrading (1 1 1)
	hex (204 203 213 214 224 223 233 234) rotatingZone (6 10 5) simpleGrading (1 1 1)
	hex (205 204 214 215 225 224 234 235) rotatingZone (12 10 5) simpleGrading (1 1 1)
	hex (206 205 215 216 226 225 235 236) rotatingZone (6 10 5) simpleGrading (1 1 1)
	hex (207 206 216 217 227 226 236 237) rotatingZone (6 10 5) simpleGrading (1 1 1)
	hex (208 207 217 218 228 227 237 238) rotatingZone (6 10 5) simpleGrading (1 1 1)
	hex (209 208 218 219 229 228 238 239) rotatingZone (6 10 5) simpleGrading (1 1 1)
	hex (220 229 239 230 240 249 259 250) rotatingZone (12 10 5) simpleGrading (1 1 1)
	hex (221 220 230 231 241 240 250 251) rotatingZone (6 10 5) simpleGrading (1 1 1)
	hex (222 221 231 232 242 241 251 252) rotatingZone (6 10 5) simpleGrading (1 1 1)
	hex (223 222 232 233 243 242 252 253) rotatingZone (6 10 5) simpleGrading (1 1 1)
	hex (224 223 233 234 244 243 253 254) rotatingZone (6 10 5) simpleGrading (1 1 1)
	hex (225 224 234 235 245 244 254 255) rotatingZone (12 10 5) simpleGrading (1 1 1)
	hex (226 225 235 236 246 245 255 256) rotatingZone (6 10 5) simpleGrading (1 1 1)
	hex (227 226 236 237 247 246 256 257) rotatingZone (6 10 5) simpleGrading (1 1 1)
	hex (228 227 237 238 248 247 257 258) rotatingZone (6 10 5) simpleGrading (1 1 1)
	hex (229 228 238 239 249 248 258 259) rotatingZone (6 10 5) simpleGrading (1 1 1)
	hex (240 249 259 250 260 269 279 270) rotatingZone (12 10 2) simpleGrading (1 1 1)
	hex (241 240 250 251 261 260 270 271) rotatingZone (6 10 2) simpleGrading (1 1 1)
	hex (242 241 251 252 262 261 271 272) rotatingZone (6 10 2) simpleGrading (1 1 1)
	hex (243 242 252 253 263 262 272 273) rotatingZone (6 10 2) simpleGrading (1 1 1)
	hex (244 243 253 254 264 263 273 274) rotatingZone (6 10 2) simpleGrading (1 1 1)
	hex (245 244 254 255 265 264 274 275) rotatingZone (12 10 2) simpleGrading (1 1 1)
	hex (246 245 255 256 266 265 275 276) rotatingZone (6 10 2) simpleGrading (1 1 1)