// * * * * * * * * * * * * * * * * * * * * * * * * * * * * * * * * * * * * * //
FoamFile
{
	version     2.0;
	format      ascii;
	class       dictionary;
	object      blockMeshDict;
}
// * * * * * * * * * * * * * * * * * * * * * * * * * * * * * * * * * * * * * //
convertToMeters 1;

vertices
(
	(0.0872   	-0.0   	0.5004)		//0
	(0.0204   	0.0847   	0.5004)		//1
	(-0.0335   	0.0805   	0.5004)		//2
	(-0.0872   	-0.0   	0.5004)		//3
	(-0.0335   	-0.0805   	0.5004)		//4
	(0.0204   	-0.0847   	0.5004)		//5
	(0.109   	-0.0   	0.5004)		//6
	(0.0255   	0.1059   	0.5004)		//7
	(-0.0418   	0.1006   	0.5004)		//8
	(-0.109   	-0.0   	0.5004)		//9
	(-0.0418   	-0.1006   	0.5004)		//10
	(0.0255   	-0.1059   	0.5004)		//11
	(0.4336   	0.1612   	1.251)		//12
	(0.2357   	0.1233   	1.251)		//13
	(0.003   	0.0615   	1.251)		//14
	(-0.1854   	-0.0686   	1.251)		//15
	(-0.007   	-0.0625   	1.251)		//16
	(0.2155   	0.0376   	1.251)		//17
	(0.4816   	0.1754   	1.251)		//18
	(0.1994   	0.1313   	1.251)		//19
	(-0.0193   	0.07   	1.251)		//20
	(-0.2069   	-0.0752   	1.251)		//21
	(-0.0196   	-0.0806   	1.251)		//22
	(0.2338   	0.0353   	1.251)		//23
	(0.4301   	0.1027   	1.5845)		//24
	(0.1932   	0.0854   	1.5845)		//25
	(0.0088   	0.0564   	1.5845)		//26
	(-0.1835   	-0.0429   	1.5845)		//27
	(-0.0148   	-0.0592   	1.5845)		//28
	(0.2107   	0.0101   	1.5845)		//29
	(0.4797   	0.1109   	1.5845)		//30
	(0.2055   	0.1011   	1.5845)		//31
	(-0.01   	0.0683   	1.5845)		//32
	(-0.2056   	-0.0475   	1.5845)		//33
	(0.0221   	-0.0705   	1.5845)		//34
	(0.2273   	0.007   	1.5845)		//35
	(0.4144   	0.065   	1.9181)		//36
	(0.1905   	0.0666   	1.9181)		//37
	(0.0114   	0.0533   	1.9181)		//38
	(-0.1754   	-0.0243   	1.9181)		//39
	(-0.0193   	-0.054   	1.9181)		//40
	(0.2014   	-0.0061   	1.9181)		//41
	(0.4634   	0.0687   	1.9181)		//42
	(0.2026   	0.0803   	1.9181)		//43
	(-0.0043   	0.0656   	1.9181)		//44
	(-0.1986   	-0.0295   	1.9181)		//45
	(0.0156   	-0.0686   	1.9181)		//46
	(0.2161   	-0.0106   	1.9181)		//47
	(0.397   	0.04   	2.2517)		//48
	(0.1851   	0.0543   	2.2517)		//49
	(0.0112   	0.0501   	2.2517)		//50
	(-0.1698   	-0.0154   	2.2517)		//51
	(0.0211   	-0.0526   	2.2517)		//52
	(0.1917   	-0.0153   	2.2517)		//53
	(0.4436   	0.0416   	2.2517)		//54
	(0.1965   	0.0659   	2.2517)		//55
	(-0.0007   	0.0625   	2.2517)		//56
	(-0.1901   	-0.0178   	2.2517)		//57
	(0.0113   	-0.0659   	2.2517)		//58
	(0.2047   	-0.0211   	2.2517)		//59
	(0.3831   	0.0251   	2.5853)		//60
	(0.179   	0.046   	2.5853)		//61
	(0.0102   	0.0473   	2.5853)		//62
	(-0.1615   	-0.0091   	2.5853)		//63
	(0.0161   	-0.0503   	2.5853)		//64
	(0.1829   	-0.0201   	2.5853)		//65
	(0.4211   	0.0245   	2.5853)		//66
	(0.1882   	0.0558   	2.5853)		//67
	(0.0014   	0.0592   	2.5853)		//68
	(-0.1805   	-0.0105   	2.5853)		//69
	(0.0085   	-0.0627   	2.5853)		//70
	(0.193   	-0.0268   	2.5853)		//71
	(0.3581   	0.015   	2.9189)		//72
	(0.1702   	0.0397   	2.9189)		//73
	(0.0085   	0.0451   	2.9189)		//74
	(-0.1535   	-0.0036   	2.9189)		//75
	(0.0118   	-0.0471   	2.9189)		//76
	(0.1724   	-0.0227   	2.9189)		//77
	(0.3979   	0.0134   	2.9189)		//78
	(0.1788   	0.0483   	2.9189)		//79
	(0.0027   	0.0558   	2.9189)		//80
	(-0.1705   	-0.0058   	2.9189)		//81
	(0.0066   	-0.0594   	2.9189)		//82
	(0.1814   	-0.0298   	2.9189)		//83
	(0.3376   	0.0087   	3.2525)		//84
	(0.1616   	0.035   	3.2525)		//85
	(0.0061   	0.0422   	3.2525)		//86
	(-0.1461   	-0.0013   	3.2525)		//87
	(0.0078   	-0.0445   	3.2525)		//88
	(0.1627   	-0.0237   	3.2525)		//89
	(0.3745   	0.0064   	3.2525)		//90
	(0.1689   	0.0426   	3.2525)		//91
	(0.0034   	0.0524   	3.2525)		//92
	(-0.1605   	-0.0027   	3.2525)		//93
	(0.0053   	-0.056   	3.2525)		//94
	(0.1702   	-0.0308   	3.2525)		//95
	(0.312   	0.0046   	3.5861)		//96
	(0.152   	0.0313   	3.5861)		//97
	(0.0078   	0.0396   	3.5861)		//98
	(-0.13   	0.0003   	3.5861)		//99
	(0.0084   	-0.0416   	3.5861)		//100
	(0.1522   	-0.0237   	3.5861)		//101
	(0.3508   	0.0019   	3.5861)		//102
	(0.1587   	0.0381   	3.5861)		//103
	(0.0038   	0.0491   	3.5861)		//104
	(-0.1503   	-0.0008   	3.5861)		//105
	(0.0043   	-0.0525   	3.5861)		//106
	(0.1591   	-0.0307   	3.5861)		//107
	(0.2905   	0.0012   	3.9197)		//108
	(0.1409   	0.028   	3.9197)		//109
	(0.0053   	0.0372   	3.9197)		//110
	(-0.1231   	0.0017   	3.9197)		//111
	(0.0051   	-0.0386   	3.9197)		//112
	(0.1407   	-0.0233   	3.9197)		//113
	(0.3274   	-0.0013   	3.9197)		//114
	(0.1484   	0.0342   	3.9197)		//115
	(0.004   	0.0457   	3.9197)		//116
	(-0.1403   	0.0005   	3.9197)		//117
	(0.0036   	-0.049   	3.9197)		//118
	(0.1482   	-0.0301   	3.9197)		//119
	(0.2689   	-0.0013   	4.2533)		//120
	(0.1294   	0.0252   	4.2533)		//121
	(0.0044   	0.0343   	4.2533)		//122
	(-0.1132   	0.002   	4.2533)		//123
	(0.0037   	-0.0361   	4.2533)		//124
	(0.1287   	-0.0225   	4.2533)		//125
	(0.3038   	-0.0038   	4.2533)		//126
	(0.138   	0.0305   	4.2533)		//127
	(0.004   	0.0424   	4.2533)		//128
	(-0.1302   	0.0016   	4.2533)		//129
	(0.0029   	-0.0455   	4.2533)		//130
	(0.1373   	-0.0291   	4.2533)		//131
	(0.2441   	-0.0035   	4.5868)		//132
	(0.1169   	0.0222   	4.5868)		//133
	(0.0057   	0.0314   	4.5868)		//134
	(-0.1006   	0.0021   	4.5868)		//135
	(0.0044   	-0.0335   	4.5868)		//136
	(0.1159   	-0.0217   	4.5868)		//137
	(0.28   	-0.0058   	4.5868)		//138
	(0.1275   	0.0271   	4.5868)		//139
	(0.004   	0.0391   	4.5868)		//140
	(-0.12   	0.0025   	4.5868)		//141
	(0.0024   	-0.042   	4.5868)		//142
	(0.1263   	-0.0279   	4.5868)		//143
	(0.2265   	-0.0044   	4.9204)		//144
	(0.108   	0.0199   	4.9204)		//145
	(0.0051   	0.0287   	4.9204)		//146
	(-0.0923   	0.0025   	4.9204)		//147
	(0.0034   	-0.0306   	4.9204)		//148
	(0.1068   	-0.0203   	4.9204)		//149
	(0.2563   	-0.0074   	4.9204)		//150
	(0.1169   	0.0238   	4.9204)		//151
	(0.004   	0.0357   	4.9204)		//152
	(-0.1099   	0.0032   	4.9204)		//153
	(0.0018   	-0.0384   	4.9204)		//154
	(0.1154   	-0.0265   	4.9204)		//155
	(0.0816   	-0.0004   	4.9204)		//156
	(0.03   	-0.0008   	4.9204)		//157
	(0.2178   	-0.0046   	5.0289)		//158
	(0.1026   	0.0194   	5.0289)		//159
	(0.0034   	0.0285   	5.0289)		//160
	(-0.091   	0.0033   	5.0289)		//161
	(0.0017   	-0.0291   	5.0289)		//162
	(0.1014   	-0.0196   	5.0289)		//163
	(0.2487   	-0.0075   	5.0289)		//164
	(0.1134   	0.023   	5.0289)		//165
	(0.0038   	0.0347   	5.0289)		//166
	(-0.1067   	0.0033   	5.0289)		//167
	(0.0017   	-0.0373   	5.0289)		//168
	(0.1119   	-0.0258   	5.0289)		//169
	(0.0771   	-0.0001   	5.0289)		//170
	(0.0274   	-0.0002   	5.0289)		//171
	(-0.0872   	-0.0   	-0.5004)		//172
	(-0.0204   	0.0847   	-0.5004)		//173
	(0.0335   	0.0805   	-0.5004)		//174
	(0.0872   	-0.0   	-0.5004)		//175
	(0.0335   	-0.0805   	-0.5004)		//176
	(-0.0204   	-0.0847   	-0.5004)		//177
	(-0.109   	-0.0   	-0.5004)		//178
	(-0.0255   	0.1059   	-0.5004)		//179
	(0.0418   	0.1006   	-0.5004)		//180
	(0.109   	-0.0   	-0.5004)		//181
	(0.0418   	-0.1006   	-0.5004)		//182
	(-0.0255   	-0.1059   	-0.5004)		//183
	(-0.4336   	0.1612   	-1.251)		//184
	(-0.2357   	0.1233   	-1.251)		//185
	(-0.003   	0.0615   	-1.251)		//186
	(0.1854   	-0.0686   	-1.251)		//187
	(0.007   	-0.0625   	-1.251)		//188
	(-0.2155   	0.0376   	-1.251)		//189
	(-0.4816   	0.1754   	-1.251)		//190
	(-0.1994   	0.1313   	-1.251)		//191
	(0.0193   	0.07   	-1.251)		//192
	(0.2069   	-0.0752   	-1.251)		//193
	(0.0196   	-0.0806   	-1.251)		//194
	(-0.2338   	0.0353   	-1.251)		//195
	(-0.4301   	0.1027   	-1.5845)		//196
	(-0.1932   	0.0854   	-1.5845)		//197
	(-0.0088   	0.0564   	-1.5845)		//198
	(0.1835   	-0.0429   	-1.5845)		//199
	(0.0148   	-0.0592   	-1.5845)		//200
	(-0.2107   	0.0101   	-1.5845)		//201
	(-0.4797   	0.1109   	-1.5845)		//202
	(-0.2055   	0.1011   	-1.5845)		//203
	(0.01   	0.0683   	-1.5845)		//204
	(0.2056   	-0.0475   	-1.5845)		//205
	(-0.0221   	-0.0705   	-1.5845)		//206
	(-0.2273   	0.007   	-1.5845)		//207
	(-0.4144   	0.065   	-1.9181)		//208
	(-0.1905   	0.0666   	-1.9181)		//209
	(-0.0114   	0.0533   	-1.9181)		//210
	(0.1754   	-0.0243   	-1.9181)		//211
	(0.0193   	-0.054   	-1.9181)		//212
	(-0.2014   	-0.0061   	-1.9181)		//213
	(-0.4634   	0.0687   	-1.9181)		//214
	(-0.2026   	0.0803   	-1.9181)		//215
	(0.0043   	0.0656   	-1.9181)		//216
	(0.1986   	-0.0295   	-1.9181)		//217
	(-0.0156   	-0.0686   	-1.9181)		//218
	(-0.2161   	-0.0106   	-1.9181)		//219
	(-0.397   	0.04   	-2.2517)		//220
	(-0.1851   	0.0543   	-2.2517)		//221
	(-0.0112   	0.0501   	-2.2517)		//222
	(0.1698   	-0.0154   	-2.2517)		//223
	(-0.0211   	-0.0526   	-2.2517)		//224
	(-0.1917   	-0.0153   	-2.2517)		//225
	(-0.4436   	0.0416   	-2.2517)		//226
	(-0.1965   	0.0659   	-2.2517)		//227
	(0.0007   	0.0625   	-2.2517)		//228
	(0.1901   	-0.0178   	-2.2517)		//229
	(-0.0113   	-0.0659   	-2.2517)		//230
	(-0.2047   	-0.0211   	-2.2517)		//231
	(-0.3831   	0.0251   	-2.5853)		//232
	(-0.179   	0.046   	-2.5853)		//233
	(-0.0102   	0.0473   	-2.5853)		//234
	(0.1615   	-0.0091   	-2.5853)		//235
	(-0.0161   	-0.0503   	-2.5853)		//236
	(-0.1829   	-0.0201   	-2.5853)		//237
	(-0.4211   	0.0245   	-2.5853)		//238
	(-0.1882   	0.0558   	-2.5853)		//239
	(-0.0014   	0.0592   	-2.5853)		//240
	(0.1805   	-0.0105   	-2.5853)		//241
	(-0.0085   	-0.0627   	-2.5853)		//242
	(-0.193   	-0.0268   	-2.5853)		//243
	(-0.3581   	0.015   	-2.9189)		//244
	(-0.1702   	0.0397   	-2.9189)		//245
	(-0.0085   	0.0451   	-2.9189)		//246
	(0.1535   	-0.0036   	-2.9189)		//247
	(-0.0118   	-0.0471   	-2.9189)		//248
	(-0.1724   	-0.0227   	-2.9189)		//249
	(-0.3979   	0.0134   	-2.9189)		//250
	(-0.1788   	0.0483   	-2.9189)		//251
	(-0.0027   	0.0558   	-2.9189)		//252
	(0.1705   	-0.0058   	-2.9189)		//253
	(-0.0066   	-0.0594   	-2.9189)		//254
	(-0.1814   	-0.0298   	-2.9189)		//255
	(-0.3376   	0.0087   	-3.2525)		//256
	(-0.1616   	0.035   	-3.2525)		//257
	(-0.0061   	0.0422   	-3.2525)		//258
	(0.1461   	-0.0013   	-3.2525)		//259
	(-0.0078   	-0.0445   	-3.2525)		//260
	(-0.1627   	-0.0237   	-3.2525)		//261
	(-0.3745   	0.0064   	-3.2525)		//262
	(-0.1689   	0.0426   	-3.2525)		//263
	(-0.0034   	0.0524   	-3.2525)		//264
	(0.1605   	-0.0027   	-3.2525)		//265
	(-0.0053   	-0.056   	-3.2525)		//266
	(-0.1702   	-0.0308   	-3.2525)		//267
	(-0.312   	0.0046   	-3.5861)		//268
	(-0.152   	0.0313   	-3.5861)		//269
	(-0.0078   	0.0396   	-3.5861)		//270
	(0.13   	0.0003   	-3.5861)		//271
	(-0.0084   	-0.0416   	-3.5861)		//272
	(-0.1522   	-0.0237   	-3.5861)		//273
	(-0.3508   	0.0019   	-3.5861)		//274
	(-0.1587   	0.0381   	-3.5861)		//275
	(-0.0038   	0.0491   	-3.5861)		//276
	(0.1503   	-0.0008   	-3.5861)		//277
	(-0.0043   	-0.0525   	-3.5861)		//278
	(-0.1591   	-0.0307   	-3.5861)		//279
	(-0.2905   	0.0012   	-3.9197)		//280
	(-0.1409   	0.028   	-3.9197)		//281
	(-0.0053   	0.0372   	-3.9197)		//282
	(0.1231   	0.0017   	-3.9197)		//283
	(-0.0051   	-0.0386   	-3.9197)		//284
	(-0.1407   	-0.0233   	-3.9197)		//285
	(-0.3274   	-0.0013   	-3.9197)		//286
	(-0.1484   	0.0342   	-3.9197)		//287
	(-0.004   	0.0457   	-3.9197)		//288
	(0.1403   	0.0005   	-3.9197)		//289
	(-0.0036   	-0.049   	-3.9197)		//290
	(-0.1482   	-0.0301   	-3.9197)		//291
	(-0.2689   	-0.0013   	-4.2533)		//292
	(-0.1294   	0.0252   	-4.2533)		//293
	(-0.0044   	0.0343   	-4.2533)		//294
	(0.1132   	0.002   	-4.2533)		//295
	(-0.0037   	-0.0361   	-4.2533)		//296
	(-0.1287   	-0.0225   	-4.2533)		//297
	(-0.3038   	-0.0038   	-4.2533)		//298
	(-0.138   	0.0305   	-4.2533)		//299
	(-0.004   	0.0424   	-4.2533)		//300
	(0.1302   	0.0016   	-4.2533)		//301
	(-0.0029   	-0.0455   	-4.2533)		//302
	(-0.1373   	-0.0291   	-4.2533)		//303
	(-0.2441   	-0.0035   	-4.5868)		//304
	(-0.1169   	0.0222   	-4.5868)		//305
	(-0.0057   	0.0314   	-4.5868)		//306
	(0.1006   	0.0021   	-4.5868)		//307
	(-0.0044   	-0.0335   	-4.5868)		//308
	(-0.1159   	-0.0217   	-4.5868)		//309
	(-0.28   	-0.0058   	-4.5868)		//310
	(-0.1275   	0.0271   	-4.5868)		//311
	(-0.004   	0.0391   	-4.5868)		//312
	(0.12   	0.0025   	-4.5868)		//313
	(-0.0024   	-0.042   	-4.5868)		//314
	(-0.1263   	-0.0279   	-4.5868)		//315
	(-0.2265   	-0.0044   	-4.9204)		//316
	(-0.108   	0.0199   	-4.9204)		//317
	(-0.0051   	0.0287   	-4.9204)		//318
	(0.0923   	0.0025   	-4.9204)		//319
	(-0.0034   	-0.0306   	-4.9204)		//320
	(-0.1068   	-0.0203   	-4.9204)		//321
	(-0.2563   	-0.0074   	-4.9204)		//322
	(-0.1169   	0.0238   	-4.9204)		//323
	(-0.004   	0.0357   	-4.9204)		//324
	(0.1099   	0.0032   	-4.9204)		//325
	(-0.0018   	-0.0384   	-4.9204)		//326
	(-0.1154   	-0.0265   	-4.9204)		//327
	(-0.0816   	-0.0004   	-4.9204)		//328
	(-0.03   	-0.0008   	-4.9204)		//329
	(-0.2178   	-0.0046   	-5.0289)		//330
	(-0.1026   	0.0194   	-5.0289)		//331
	(-0.0034   	0.0285   	-5.0289)		//332
	(0.091   	0.0033   	-5.0289)		//333
	(-0.0017   	-0.0291   	-5.0289)		//334
	(-0.1014   	-0.0196   	-5.0289)		//335
	(-0.2487   	-0.0075   	-5.0289)		//336
	(-0.1134   	0.023   	-5.0289)		//337
	(-0.0038   	0.0347   	-5.0289)		//338
	(0.1067   	0.0033   	-5.0289)		//339
	(-0.0017   	-0.0373   	-5.0289)		//340
	(-0.1119   	-0.0258   	-5.0289)		//341
	(-0.0771   	-0.0001   	-5.0289)		//342
	(-0.0274   	-0.0002   	-5.0289)		//343
);

blocks
(
	hex (1 0 6 7 13 12 18 19) rotatingZone (20 1 20) simpleGrading (1 1 1)
	hex (2 1 7 8 14 13 19 20) rotatingZone (20 1 20) simpleGrading (1 1 1)
	hex (3 2 8 9 15 14 20 21) rotatingZone (20 1 20) simpleGrading (1 1 1)
	hex (4 3 9 10 16 15 21 22) rotatingZone (20 1 20) simpleGrading (1 1 1)
	hex (5 4 10 11 17 16 22 23) rotatingZone (20 1 20) simpleGrading (1 1 1)
	hex (0 5 11 6 12 17 23 18) rotatingZone (20 1 20) simpleGrading (1 1 1)
	hex (13 12 18 19 25 24 30 31) rotatingZone (20 1 20) simpleGrading (1 1 1)
	hex (14 13 19 20 26 25 31 32) rotatingZone (20 1 20) simpleGrading (1 1 1)
	hex (15 14 20 21 27 26 32 33) rotatingZone (20 1 20) simpleGrading (1 1 1)
	hex (16 15 21 22 28 27 33 34) rotatingZone (20 1 20) simpleGrading (1 1 1)
	hex (17 16 22 23 29 28 34 35) rotatingZone (20 1 20) simpleGrading (1 1 1)
	hex (12 17 23 18 24 29 35 30) rotatingZone (20 1 20) simpleGrading (1 1 1)
	hex (25 24 30 31 37 36 42 43) rotatingZone (20 1 20) simpleGrading (1 1 1)
	hex (26 25 31 32 38 37 43 44) rotatingZone (20 1 20) simpleGrading (1 1 1)
	hex (27 26 32 33 39 38 44 45) rotatingZone (20 1 20) simpleGrading (1 1 1)
	hex (28 27 33 34 40 39 45 46) rotatingZone (20 1 20) simpleGrading (1 1 1)
	hex (29 28 34 35 41 40 46 47) rotatingZone (20 1 20) simpleGrading (1 1 1)
	hex (24 29 35 30 36 41 47 42) rotatingZone (20 1 20) simpleGrading (1 1 1)
	hex (37 36 42 43 49 48 54 55) rotatingZone (20 1 20) simpleGrading (1 1 1)
	hex (38 37 43 44 50 49 55 56) rotatingZone (20 1 20) simpleGrading (1 1 1)
	hex (39 38 44 45 51 50 56 57) rotatingZone (20 1 20) simpleGrading (1 1 1)
	hex (40 39 45 46 52 51 57 58) rotatingZone (20 1 20) simpleGrading (1 1 1)
	hex (41 40 46 47 53 52 58 59) rotatingZone (20 1 20) simpleGrading (1 1 1)
	hex (36 41 47 42 48 53 59 54) rotatingZone (20 1 20) simpleGrading (1 1 1)
	hex (49 48 54 55 61 60 66 67) rotatingZone (20 1 20) simpleGrading (1 1 1)
	hex (50 49 55 56 62 61 67 68) rotatingZone (20 1 20) simpleGrading (1 1 1)
	hex (51 50 56 57 63 62 68 69) rotatingZone (20 1 20) simpleGrading (1 1 1)
	hex (52 51 57 58 64 63 69 70) rotatingZone (20 1 20) simpleGrading (1 1 1)
	hex (53 52 58 59 65 64 70 71) rotatingZone (20 1 20) simpleGrading (1 1 1)
	hex (48 53 59 54 60 65 71 66) rotatingZone (20 1 20) simpleGrading (1 1 1)
	hex (61 60 66 67 73 72 78 79) rotatingZone (20 1 20) simpleGrading (1 1 1)
	hex (62 61 67 68 74 73 79 80) rotatingZone (20 1 20) simpleGrading (1 1 1)
	hex (63 62 68 69 75 74 80 81) rotatingZone (20 1 20) simpleGrading (1 1 1)
	hex (64 63 69 70 76 75 81 82) rotatingZone (20 1 20) simpleGrading (1 1 1)
	hex (65 64 70 71 77 76 82 83) rotatingZone (20 1 20) simpleGrading (1 1 1)
	hex (60 65 71 66 72 77 83 78) rotatingZone (20 1 20) simpleGrading (1 1 1)
	hex (73 72 78 79 85 84 90 91) rotatingZone (20 1 20) simpleGrading (1 1 1)
	hex (74 73 79 80 86 85 91 92) rotatingZone (20 1 20) simpleGrading (1 1 1)
	hex (75 74 80 81 87 86 92 93) rotatingZone (20 1 20) simpleGrading (1 1 1)
	hex (76 75 81 82 88 87 93 94) rotatingZone (20 1 20) simpleGrading (1 1 1)
	hex (77 76 82 83 89 88 94 95) rotatingZone (20 1 20) simpleGrading (1 1 1)
	hex (72 77 83 78 84 89 95 90) rotatingZone (20 1 20) simpleGrading (1 1 1)
	hex (85 84 90 91 97 96 102 103) rotatingZone (20 1 20) simpleGrading (1 1 1)
	hex (86 85 91 92 98 97 103 104) rotatingZone (20 1 20) simpleGrading (1 1 1)
	hex (87 86 92 93 99 98 104 105) rotatingZone (20 1 20) simpleGrading (1 1 1)
	hex (88 87 93 94 100 99 105 106) rotatingZone (20 1 20) simpleGrading (1 1 1)
	hex (89 88 94 95 101 100 106 107) rotatingZone (20 1 20) simpleGrading (1 1 1)
	hex (84 89 95 90 96 101 107 102) rotatingZone (20 1 20) simpleGrading (1 1 1)
	hex (97 96 102 103 109 108 114 115) rotatingZone (20 1 20) simpleGrading (1 1 1)
	hex (98 97 103 104 110 109 115 116) rotatingZone (20 1 20) simpleGrading (1 1 1)
	hex (99 98 104 105 111 110 116 117) rotatingZone (20 1 20) simpleGrading (1 1 1)
	hex (100 99 105 106 112 111 117 118) rotatingZone (20 1 20) simpleGrading (1 1 1)
	hex (101 100 106 107 113 112 118 119) rotatingZone (20 1 20) simpleGrading (1 1 1)
	hex (96 101 107 102 108 113 119 114) rotatingZone (20 1 20) simpleGrading (1 1 1)
	hex (109 108 114 115 121 120 126 127) rotatingZone (20 1 20) simpleGrading (1 1 1)
	hex (110 109 115 116 122 121 127 128) rotatingZone (20 1 20) simpleGrading (1 1 1)
	hex (111 110 116 117 123 122 128 129) rotatingZone (20 1 20) simpleGrading (1 1 1)
	hex (112 111 117 118 124 123 129 130) rotatingZone (20 1 20) simpleGrading (1 1 1)
	hex (113 112 118 119 125 124 130 131) rotatingZone (20 1 20) simpleGrading (1 1 1)
	hex (108 113 119 114 120 125 131 126) rotatingZone (20 1 20) simpleGrading (1 1 1)
	hex (121 120 126 127 133 132 138 139) rotatingZone (20 1 20) simpleGrading (1 1 1)
	hex (122 121 127 128 134 133 139 140) rotatingZone (20 1 20) simpleGrading (1 1 1)
	hex (123 122 128 129 135 134 140 141) rotatingZone (20 1 20) simpleGrading (1 1 1)
	hex (124 123 129 130 136 135 141 142) rotatingZone (20 1 20) simpleGrading (1 1 1)
	hex (125 124 130 131 137 136 142 143) rotatingZone (20 1 20) simpleGrading (1 1 1)
	hex (120 125 131 126 132 137 143 138) rotatingZone (20 1 20) simpleGrading (1 1 1)
	hex (133 132 138 139 145 144 150 151) rotatingZone (20 1 20) simpleGrading (1 1 1)
	hex (134 133 139 140 146 145 151 152) rotatingZone (20 1 20) simpleGrading (1 1 1)
	hex (135 134 140 141 147 146 152 153) rotatingZone (20 1 20) simpleGrading (1 1 1)
	hex (136 135 141 142 148 147 153 154) rotatingZone (20 1 20) simpleGrading (1 1 1)
	hex (137 136 142 143 149 148 154 155) rotatingZone (20 1 20) simpleGrading (1 1 1)
	hex (132 137 143 138 144 149 155 150) rotatingZone (20 1 20) simpleGrading (1 1 1)
	hex (145 144 150 151 159 158 164 165) rotatingZone (20 1 4) simpleGrading (1 1 1)
	hex (146 145 151 152 160 159 165 166) rotatingZone (20 1 4) simpleGrading (1 1 1)
	hex (147 146 152 153 161 160 166 167) rotatingZone (20 1 4) simpleGrading (1 1 1)
	hex (148 147 153 154 162 161 167 168) rotatingZone (20 1 4) simpleGrading (1 1 1)
	hex (149 148 154 155 163 162 168 169) rotatingZone (20 1 4) simpleGrading (1 1 1)
	hex (144 149 155 150 158 163 169 164) rotatingZone (20 1 4) simpleGrading (1 1 1)
	hex (173 172 178 179 185 184 190 191) rotatingZone (20 1 10) simpleGrading (1 1 1)
	hex (174 173 179 180 186 185 191 192) rotatingZone (20 1 10) simpleGrading (1 1 1)
	hex (175 174 180 181 187 186 192 193) rotatingZone (20 1 10) simpleGrading (1 1 1)
	hex (176 175 181 182 188 187 193 194) rotatingZone (20 1 10) simpleGrading (1 1 1)
	hex (177 176 182 183 189 188 194 195) rotatingZone (20 1 10) simpleGrading (1 1 1)
	hex (172 177 183 178 184 189 195 190) rotatingZone (20 1 10) simpleGrading (1 1 1)
	hex (185 184 190 191 197 196 202 203) rotatingZone (20 1 10) simpleGrading (1 1 1)
	hex (186 185 191 192 198 197 203 204) rotatingZone (20 1 10) simpleGrading (1 1 1)
	hex (187 186 192 193 199 198 204 205) rotatingZone (20 1 10) simpleGrading (1 1 1)
	hex (188 187 193 194 200 199 205 206) rotatingZone (20 1 10) simpleGrading (1 1 1)
	hex (189 188 194 195 201 200 206 207) rotatingZone (20 1 10) simpleGrading (1 1 1)
	hex (184 189 195 190 196 201 207 202) rotatingZone (20 1 10) simpleGrading (1 1 1)
	hex (197 196 202 203 209 208 214 215) rotatingZone (20 1 10) simpleGrading (1 1 1)
	hex (198 197 203 204 210 209 215 216) rotatingZone (20 1 10) simpleGrading (1 1 1)
	hex (199 198 204 205 211 210 216 217) rotatingZone (20 1 10) simpleGrading (1 1 1)
	hex (200 199 205 206 212 211 217 218) rotatingZone (20 1 10) simpleGrading (1 1 1)
	hex (201 200 206 207 213 212 218 219) rotatingZone (20 1 10) simpleGrading (1 1 1)
	hex (196 201 207 202 208 213 219 214) rotatingZone (20 1 10) simpleGrading (1 1 1)
	hex (209 208 214 215 221 220 226 227) rotatingZone (20 1 10) simpleGrading (1 1 1)
	hex (210 209 215 216 222 221 227 228) rotatingZone (20 1 10) simpleGrading (1 1 1)
	hex (211 210 216 217 223 222 228 229) rotatingZone (20 1 10) simpleGrading (1 1 1)
	hex (212 211 217 218 224 223 229 230) rotatingZone (20 1 10) simpleGrading (1 1 1)
	hex (213 212 218 219 225 224 230 231) rotatingZone (20 1 10) simpleGrading (1 1 1)
	hex (208 213 219 214 220 225 231 226) rotatingZone (20 1 10) simpleGrading (1 1 1)
	hex (221 220 226 227 233 232 238 239) rotatingZone (20 1 10) simpleGrading (1 1 1)
	hex (222 221 227 228 234 233 239 240) rotatingZone (20 1 10) simpleGrading (1 1 1)
	hex (223 222 228 229 235 234 240 241) rotatingZone (20 1 10) simpleGrading (1 1 1)
	hex (224 223 229 230 236 235 241 242) rotatingZone (20 1 10) simpleGrading (1 1 1)
	hex (225 224 230 231 237 236 242 243) rotatingZone (20 1 10) simpleGrading (1 1 1)
	hex (220 225 231 226 232 237 243 238) rotatingZone (20 1 10) simpleGrading (1 1 1)
	hex (233 232 238 239 245 244 250 251) rotatingZone (20 1 10) simpleGrading (1 1 1)
	hex (234 233 239 240 246 245 251 252) rotatingZone (20 1 10) simpleGrading (1 1 1)
	hex (235 234 240 241 247 246 252 253) rotatingZone (20 1 10) simpleGrading (1 1 1)
	hex (236 235 241 242 248 247 253 254) rotatingZone (20 1 10) simpleGrading (1 1 1)
	hex (237 236 242 243 249 248 254 255) rotatingZone (20 1 10) simpleGrading (1 1 1)
	hex (232 237 243 238 244 249 255 250) rotatingZone (20 1 10) simpleGrading (1 1 1)
	hex (245 244 250 251 257 256 262 263) rotatingZone (20 1 10) simpleGrading (1 1 1)
	hex (246 245 251 252 258 257 263 264) rotatingZone (20 1 10) simpleGrading (1 1 1)
	hex (247 246 252 253 259 258 264 265) rotatingZone (20 1 10) simpleGrading (1 1 1)
	hex (248 247 253 254 260 259 265 266) rotatingZone (20 1 10) simpleGrading (1 1 1)
	hex (249 248 254 255 261 260 266 267) rotatingZone (20 1 10) simpleGrading (1 1 1)
	hex (244 249 255 250 256 261 267 262) rotatingZone (20 1 10) simpleGrading (1 1 1)
	hex (257 256 262 263 269 268 274 275) rotatingZone (20 1 10) simpleGrading (1 1 1)
	hex (258 257 263 264 270 269 275 276) rotatingZone (20 1 10) simpleGrading (1 1 1)
	hex (259 258 264 265 271 270 276 277) rotatingZone (20 1 10) simpleGrading (1 1 1)
	hex (260 259 265 266 272 271 277 278) rotatingZone (20 1 10) simpleGrading (1 1 1)
	hex (261 260 266 267 273 272 278 279) rotatingZone (20 1 10) simpleGrading (1 1 1)
	hex (256 261 267 262 268 273 279 274) rotatingZone (20 1 10) simpleGrading (1 1 1)
	hex (269 268 274 275 281 280 286 287) rotatingZone (20 1 10) simpleGrading (1 1 1)
	hex (270 269 275 276 282 281 287 288) rotatingZone (20 1 10) simpleGrading (1 1 1)
	hex (271 270 276 277 283 282 288 289) rotatingZone (20 1 10) simpleGrading (1 1 1)
	hex (272 271 277 278 284 283 289 290) rotatingZone (20 1 10) simpleGrading (1 1 1)
	hex (273 272 278 279 285 284 290 291) rotatingZone (20 1 10) simpleGrading (1 1 1)
	hex (268 273 279 274 280 285 291 286) rotatingZone (20 1 10) simpleGrading (1 1 1)
	hex (281 280 286 287 293 292 298 299) rotatingZone (20 1 10) simpleGrading (1 1 1)
	hex (282 281 287 288 294 293 299 300) rotatingZone (20 1 10) simpleGrading (1 1 1)
	hex (283 282 288 289 295 294 300 301) rotatingZone (20 1 10) simpleGrading (1 1 1)
	hex (284 283 289 290 296 295 301 302) rotatingZone (20 1 10) simpleGrading (1 1 1)
	hex (285 284 290 291 297 296 302 303) rotatingZone (20 1 10) simpleGrading (1 1 1)
	hex (280 285 291 286 292 297 303 298) rotatingZone (20 1 10) simpleGrading (1 1 1)
	hex (293 292 298 299 305 304 310 311) rotatingZone (20 1 10) simpleGrading (1 1 1)
	hex (294 293 299 300 306 305 311 312) rotatingZone (20 1 10) simpleGrading (1 1 1)
	hex (295 294 300 301 307 306 312 313) rotatingZone (20 1 10) simpleGrading (1 1 1)
	hex (296 295 301 302 308 307 313 314) rotatingZone (20 1 10) simpleGrading (1 1 1)
	hex (297 296 302 303 309 308 314 315) rotatingZone (20 1 10) simpleGrading (1 1 1)
	hex (292 297 303 298 304 309 315 310) rotatingZone (20 1 10) simpleGrading (1 1 1)
	hex (305 304 310 311 317 316 322 323) rotatingZone (20 1 10) simpleGrading (1 1 1)
	hex (306 305 311 312 318 317 323 324) rotatingZone (20 1 10) simpleGrading (1 1 1)
	hex (307 306 312 313 319 318 324 325) rotatingZone (20 1 10) simpleGrading (1 1 1)
	hex (308 307 313 314 320 319 325 326) rotatingZone (20 1 10) simpleGrading (1 1 1)
	hex (309 308 314 315 321 320 326 327) rotatingZone (20 1 10) simpleGrading (1 1 1)
	hex (304 309 315 310 316 321 327 322) rotatingZone (20 1 10) simpleGrading (1 1 1)
	hex (317 316 322 323 331 330 336 337) rotatingZone (20 1 4) simpleGrading (1 1 1)
	hex (318 317 323 324 332 331 337 338) rotatingZone (20 1 4) simpleGrading (1 1 1)
	hex (319 318 324 325 333 332 338 339) rotatingZone (20 1 4) simpleGrading (1 1 1)
	hex (320 319 325 326 334 333 339 340) rotatingZone (20 1 4) simpleGrading (1 1 1)
	hex (321 320 326 327 335 334 340 341) rotatingZone (20 1 4) simpleGrading (1 1 1)
	hex (316 321 327 322 330 335 341 336) rotatingZone (20 1 4) simpleGrading (1 1 1)
	hex (174 175 181 180 1 0 6 7) rotatingZone (20 1 10) simpleGrading (1 1 1)
	hex (173 174 180 179 2 1 7 8) rotatingZone (20 1 10) simpleGrading (1 1 1)
	hex (172 173 179 178 3 2 8 9) rotatingZone (20 1 10) simpleGrading (1 1 1)
	hex (177 172 178 183 4 3 9 10) rotatingZone (20 1 10) simpleGrading (1 1 1)
	hex (176 177 183 182 5 4 10 11) rotatingZone (20 1 10) simpleGrading (1 1 1)
	hex (175 176 182 181 0 5 11 6) rotatingZone (20 1 10) simpleGrading (1 1 1)
);

edges
(
	BSpline 1 0
	(
		(0.0335 0.0805 0.5004)
		(0.0457 0.0742 0.5004)
		(0.0568 0.0661 0.5004)
		(0.0665 0.0564 0.5004)
		(0.0746 0.0451 0.5004)
		(0.0808 0.0327 0.5004)
		(0.0851 0.019 0.5004)
	)
	BSpline 2 1
	(
		(-0.0204 0.0847 0.5004)
		(-0.0069 0.0869 0.5004)
		(0.0069 0.0869 0.5004)
	)
	BSpline 3 2
	(
		(-0.0851 0.019 0.5004)
		(-0.0808 0.0327 0.5004)
		(-0.0746 0.0451 0.5004)
		(-0.0665 0.0564 0.5004)
		(-0.0568 0.0661 0.5004)
		(-0.0457 0.0742 0.5004)
	)
	BSpline 4 3
	(
		(-0.0457 -0.0742 0.5004)
		(-0.0568 -0.0661 0.5004)
		(-0.0665 -0.0564 0.5004)
		(-0.0746 -0.0451 0.5004)
		(-0.0808 -0.0327 0.5004)
		(-0.0851 -0.019 0.5004)
	)
	BSpline 5 4
	(
		(0.0069 -0.0869 0.5004)
		(-0.0069 -0.0869 0.5004)
		(-0.0204 -0.0847 0.5004)
	)
	BSpline 0 5
	(
		(0.0851 -0.019 0.5004)
		(0.0808 -0.0327 0.5004)
		(0.0746 -0.0451 0.5004)
		(0.0665 -0.0564 0.5004)
		(0.0568 -0.0661 0.5004)
		(0.0457 -0.0742 0.5004)
		(0.0335 -0.0805 0.5004)
	)
	BSpline 7 6
	(
		(0.0418 0.1006 0.5004)
		(0.0571 0.0928 0.5004)
		(0.071 0.0826 0.5004)
		(0.0831 0.0704 0.5004)
		(0.0932 0.0564 0.5004)
		(0.101 0.0409 0.5004)
		(0.1063 0.0238 0.5004)
	)
	BSpline 8 7
	(
		(-0.0255 0.1059 0.5004)
		(-0.0086 0.1086 0.5004)
		(0.0086 0.1086 0.5004)
	)
	BSpline 9 8
	(
		(-0.1063 0.0238 0.5004)
		(-0.101 0.0409 0.5004)
		(-0.0932 0.0564 0.5004)
		(-0.0831 0.0704 0.5004)
		(-0.071 0.0826 0.5004)
		(-0.0571 0.0928 0.5004)
	)
	BSpline 10 9
	(
		(-0.0571 -0.0928 0.5004)
		(-0.071 -0.0826 0.5004)
		(-0.0831 -0.0704 0.5004)
		(-0.0932 -0.0564 0.5004)
		(-0.101 -0.0409 0.5004)
		(-0.1063 -0.0238 0.5004)
	)
	BSpline 11 10
	(
		(0.0086 -0.1086 0.5004)
		(-0.0086 -0.1086 0.5004)
		(-0.0255 -0.1059 0.5004)
	)
	BSpline 6 11
	(
		(0.1063 -0.0238 0.5004)
		(0.101 -0.0409 0.5004)
		(0.0932 -0.0564 0.5004)
		(0.0831 -0.0704 0.5004)
		(0.071 -0.0826 0.5004)
		(0.0571 -0.0928 0.5004)
		(0.0418 -0.1006 0.5004)
	)
	BSpline 13 12
	(
		(0.2816 0.1327 1.251)
		(0.3235 0.1415 1.251)
		(0.3597 0.149 1.251)
		(0.3892 0.1543 1.251)
		(0.4116 0.1577 1.251)
		(0.4264 0.1599 1.251)
	)
	BSpline 14 13
	(
		(0.0507 0.0813 1.251)
		(0.0956 0.0966 1.251)
		(0.1411 0.1066 1.251)
		(0.188 0.1144 1.251)
	)
	BSpline 15 14
	(
		(-0.182 -0.0558 1.251)
		(-0.1705 -0.0413 1.251)
		(-0.1509 -0.0241 1.251)
		(-0.1228 -0.0045 1.251)
		(-0.0867 0.0171 1.251)
		(-0.0439 0.0395 1.251)
	)
	BSpline 16 15
	(
		(-0.0553 -0.0705 1.251)
		(-0.0978 -0.0752 1.251)
		(-0.1324 -0.0767 1.251)
		(-0.1584 -0.076 1.251)
		(-0.1757 -0.0736 1.251)
	)
	BSpline 17 16
	(
		(0.1758 0.0101 1.251)
		(0.1359 -0.0152 1.251)
		(0.0928 -0.0353 1.251)
		(0.0438 -0.0511 1.251)
	)
	BSpline 12 17
	(
		(0.4266 0.1589 1.251)
		(0.4129 0.1537 1.251)
		(0.3926 0.1447 1.251)
		(0.3659 0.1314 1.251)
		(0.3335 0.1135 1.251)
		(0.2965 0.0912 1.251)
		(0.2565 0.0653 1.251)
	)
	BSpline 19 18
	(
		(0.2546 0.1399 1.251)
		(0.3062 0.1482 1.251)
		(0.353 0.156 1.251)
		(0.3939 0.1628 1.251)
		(0.4281 0.1679 1.251)
		(0.4547 0.1713 1.251)
		(0.4727 0.1738 1.251)
	)
	BSpline 20 19
	(
		(0.0312 0.0916 1.251)
		(0.0852 0.1099 1.251)
		(0.142 0.1223 1.251)
	)
	BSpline 21 20
	(
		(-0.203 -0.0593 1.251)
		(-0.1904 -0.0418 1.251)
		(-0.1698 -0.0217 1.251)
		(-0.1417 0.0003 1.251)
		(-0.1068 0.0236 1.251)
		(-0.0656 0.0471 1.251)
	)
	BSpline 22 21
	(
		(-0.0673 -0.0859 1.251)
		(-0.1099 -0.088 1.251)
		(-0.1462 -0.0873 1.251)
		(-0.1748 -0.0851 1.251)
		(-0.1951 -0.0815 1.251)
	)
	BSpline 23 22
	(
		(0.1854 0.0017 1.251)
		(0.1355 -0.0299 1.251)
		(0.0838 -0.0543 1.251)
		(0.0314 -0.0707 1.251)
	)