FoamFile
{
    version     2.0;
    format      ascii;
    class       dictionary;
    object      blockMeshDict;
}
// * * * * * * * * * * * * * * * * * * * * * * * * * * * * * * * * * * * * * //
convertToMeters 1;

vertices
(
	(-1.0933   	-1.4819   	3.8282)		//0
	(1.0795   	-1.4918   	3.8324)		//1
	(1.0933   	1.4819   	3.8282)		//2
	(-1.0795   	1.4918   	3.8324)		//3
	(-3   	-3   	2.6458)		//4
	(-1.0933   	-3   	3.8477)		//5
	(1.0795   	-3   	3.8477)		//6
	(3   	-3   	2.6458)		//7
	(3   	-1.4918   	2.6458)		//8
	(3   	1.4819   	2.6458)		//9
	(3   	3   	2.6458)		//10
	(1.0795   	3   	3.8477)		//11
	(-1.0933   	3   	3.8477)		//12
	(-3   	3   	2.6458)		//13
	(-3   	1.4918   	2.6458)		//14
	(-3   	-1.4819   	2.6458)		//15
	(-3   	-25   	2.6458)		//16
	(-1.0933   	-25   	3.8477)		//17
	(1.0795   	-25   	3.8477)		//18
	(3   	-25   	2.6458)		//19
	(3   	25   	2.6458)		//20
	(1.0795   	25   	3.8477)		//21
	(-1.0933   	25   	3.8477)		//22
	(-3   	25   	2.6458)		//23
	(-1.0674   	-1.5292   	5.5245)		//24
	(1.2005   	-1.5396   	5.5245)		//25
	(1.215   	1.5641   	5.5245)		//26
	(-1.0529   	1.5745   	5.5245)		//27
	(-5.4014   	-3   	5.5245)		//28
	(-1.0674   	-3   	5.5245)		//29
	(1.2005   	-3   	5.5245)		//30
	(5.4014   	-3   	5.5245)		//31
	(5.4014   	-1.5396   	5.5245)		//32
	(5.4014   	1.5641   	5.5245)		//33
	(5.4014   	3   	5.5245)		//34
	(1.2005   	3   	5.5245)		//35
	(-1.0674   	3   	5.5245)		//36
	(-5.4014   	3   	5.5245)		//37
	(-5.4014   	1.5745   	5.5245)		//38
	(-5.4014   	-1.5292   	5.5245)		//39
	(-5.4014   	-25   	5.5245)		//40
	(-1.0674   	-25   	5.5245)		//41
	(1.2005   	-25   	5.5245)		//42
	(5.4014   	-25   	5.5245)		//43
	(5.4014   	25   	5.5245)		//44
	(1.2005   	25   	5.5245)		//45
	(-1.0674   	25   	5.5245)		//46
	(-5.4014   	25   	5.5245)		//47
	(-1.0836   	-1.6343   	8.1823)		//48
	(1.3639   	-1.6454   	8.1823)		//49
	(1.3795   	1.7042   	8.1823)		//50
	(-1.0681   	1.7154   	8.1823)		//51
	(-8   	-3   	8.1823)		//52
	(-1.0836   	-3   	8.1823)		//53
	(1.3639   	-3   	8.1823)		//54
	(8   	-3   	8.1823)		//55
	(8   	-1.6454   	8.1823)		//56
	(8   	1.7042   	8.1823)		//57
	(8   	3   	8.1823)		//58
	(1.3639   	3   	8.1823)		//59
	(-1.0836   	3   	8.1823)		//60
	(-8   	3   	8.1823)		//61
	(-8   	1.7154   	8.1823)		//62
	(-8   	-1.6343   	8.1823)		//63
	(-8   	-25   	8.1823)		//64
	(-1.0836   	-25   	8.1823)		//65
	(1.3639   	-25   	8.1823)		//66
	(8   	-25   	8.1823)		//67
	(8   	25   	8.1823)		//68
	(1.3639   	25   	8.1823)		//69
	(-1.0836   	25   	8.1823)		//70
	(-8   	25   	8.1823)		//71
	(-2.7687   	-1.4819   	-2.8609)		//72
	(-3.8587   	-1.4918   	-0.9813)		//73
	(-3.862   	1.4819   	-0.9673)		//74
	(-2.7792   	1.4918   	-2.8511)		//75
	(-0.7913   	-3   	-3.921)		//76
	(-2.7855   	-3   	-2.8707)		//77
	(-3.8719   	-3   	-0.989)		//78
	(-3.7913   	-3   	1.2752)		//79
	(-3.7913   	-1.4918   	1.2752)		//80
	(-3.7913   	1.4819   	1.2752)		//81
	(-3.7913   	3   	1.2752)		//82
	(-3.8719   	3   	-0.989)		//83
	(-2.7855   	3   	-2.8707)		//84
	(-0.7913   	3   	-3.921)		//85
	(-0.7913   	1.4918   	-3.921)		//86
	(-0.7913   	-1.4819   	-3.921)		//87
	(-0.7913   	-25   	-3.921)		//88
	(-2.7855   	-25   	-2.8707)		//89
	(-3.8719   	-25   	-0.989)		//90
	(-3.7913   	-25   	1.2752)		//91
	(-3.7913   	25   	1.2752)		//92
	(-3.8719   	25   	-0.989)		//93
	(-2.7855   	25   	-2.8707)		//94
	(-0.7913   	25   	-3.921)		//95
	(-4.2507   	-1.5292   	-3.6866)		//96
	(-5.3846   	-1.5396   	-1.7226)		//97
	(-5.3919   	1.5641   	-1.71)		//98
	(-4.2579   	1.5745   	-3.6741)		//99
	(-2.0837   	-3   	-7.44)		//100
	(-4.2507   	-3   	-3.6866)		//101
	(-5.3846   	-3   	-1.7226)		//102
	(-7.4851   	-3   	1.9155)		//103
	(-7.4851   	-1.5396   	1.9155)		//104
	(-7.4851   	1.5641   	1.9155)		//105
	(-7.4851   	3   	1.9155)		//106
	(-5.3846   	3   	-1.7226)		//107
	(-4.2507   	3   	-3.6866)		//108
	(-2.0837   	3   	-7.44)		//109
	(-2.0837   	1.5745   	-7.44)		//110
	(-2.0837   	-1.5292   	-7.44)		//111
	(-2.0837   	-25   	-7.44)		//112
	(-4.2507   	-25   	-3.6866)		//113
	(-5.3846   	-25   	-1.7226)		//114
	(-7.4851   	-25   	1.9155)		//115
	(-7.4851   	25   	1.9155)		//116
	(-5.3846   	25   	-1.7226)		//117
	(-4.2507   	25   	-3.6866)		//118
	(-2.0837   	25   	-7.44)		//119
	(-6.5443   	-1.6343   	-5.0296)		//120
	(-7.768   	-1.6454   	-2.91)		//121
	(-7.7758   	1.7042   	-2.8965)		//122
	(-6.552   	1.7154   	-5.0162)		//123
	(-3.0861   	-3   	-11.0194)		//124
	(-6.5443   	-3   	-5.0296)		//125
	(-7.768   	-3   	-2.91)		//126
	(-11.0861   	-3   	2.8371)		//127
	(-11.0861   	-1.6454   	2.8371)		//128
	(-11.0861   	1.7042   	2.8371)		//129
	(-11.0861   	3   	2.8371)		//130
	(-7.768   	3   	-2.91)		//131
	(-6.5443   	3   	-5.0296)		//132
	(-3.0861   	3   	-11.0194)		//133
	(-3.0861   	1.7154   	-11.0194)		//134
	(-3.0861   	-1.6343   	-11.0194)		//135
	(-3.0861   	-25   	-11.0194)		//136
	(-6.5443   	-25   	-5.0296)		//137
	(-7.768   	-25   	-2.91)		//138
	(-11.0861   	-25   	2.8371)		//139
	(-11.0861   	25   	2.8371)		//140
	(-7.768   	25   	-2.91)		//141
	(-6.5443   	25   	-5.0296)		//142
	(-3.0861   	25   	-11.0194)		//143
	(3.862   	-1.4819   	-0.9673)		//144
	(2.7792   	-1.4918   	-2.8511)		//145
	(2.7687   	1.4819   	-2.8609)		//146
	(3.8587   	1.4918   	-0.9813)		//147
	(3.7913   	-3   	1.2752)		//148
	(3.8788   	-3   	-0.977)		//149
	(2.7924   	-3   	-2.8587)		//150
	(0.7913   	-3   	-3.921)		//151
	(0.7913   	-1.4918   	-3.921)		//152
	(0.7913   	1.4819   	-3.921)		//153
	(0.7913   	3   	-3.921)		//154
	(2.7924   	3   	-2.8587)		//155
	(3.8788   	3   	-0.977)		//156
	(3.7913   	3   	1.2752)		//157
	(3.7913   	1.4918   	1.2752)		//158
	(3.7913   	-1.4819   	1.2752)		//159
	(3.7913   	-25   	1.2752)		//160
	(3.8788   	-25   	-0.977)		//161
	(2.7924   	-25   	-2.8587)		//162
	(0.7913   	-25   	-3.921)		//163
	(0.7913   	25   	-3.921)		//164
	(2.7924   	25   	-2.8587)		//165
	(3.8788   	25   	-0.977)		//166
	(3.7913   	25   	1.2752)		//167
	(5.3181   	-1.5292   	-1.8379)		//168
	(4.1841   	-1.5396   	-3.8019)		//169
	(4.1769   	1.5641   	-3.8145)		//170
	(5.3108   	1.5745   	-1.8504)		//171
	(7.4851   	-3   	1.9155)		//172
	(5.3181   	-3   	-1.8379)		//173
	(4.1841   	-3   	-3.8019)		//174
	(2.0837   	-3   	-7.44)		//175
	(2.0837   	-1.5396   	-7.44)		//176
	(2.0837   	1.5641   	-7.44)		//177
	(2.0837   	3   	-7.44)		//178
	(4.1841   	3   	-3.8019)		//179
	(5.3181   	3   	-1.8379)		//180
	(7.4851   	3   	1.9155)		//181
	(7.4851   	1.5745   	1.9155)		//182
	(7.4851   	-1.5292   	1.9155)		//183
	(7.4851   	-25   	1.9155)		//184
	(5.3181   	-25   	-1.8379)		//185
	(4.1841   	-25   	-3.8019)		//186
	(2.0837   	-25   	-7.44)		//187
	(2.0837   	25   	-7.44)		//188
	(4.1841   	25   	-3.8019)		//189
	(5.3181   	25   	-1.8379)		//190
	(7.4851   	25   	1.9155)		//191
	(7.6279   	-1.6343   	-3.1527)		//192
	(6.4041   	-1.6454   	-5.2723)		//193
	(6.3963   	1.7042   	-5.2858)		//194
	(7.6201   	1.7154   	-3.1661)		//195
	(11.0861   	-3   	2.8371)		//196
	(7.6279   	-3   	-3.1527)		//197
	(6.4041   	-3   	-5.2723)		//198
	(3.0861   	-3   	-11.0194)		//199
	(3.0861   	-1.6454   	-11.0194)		//200
	(3.0861   	1.7042   	-11.0194)		//201
	(3.0861   	3   	-11.0194)		//202
	(6.4041   	3   	-5.2723)		//203
	(7.6279   	3   	-3.1527)		//204
	(11.0861   	3   	2.8371)		//205
	(11.0861   	1.7154   	2.8371)		//206
	(11.0861   	-1.6343   	2.8371)		//207
	(11.0861   	-25   	2.8371)		//208
	(7.6279   	-25   	-3.1527)		//209
	(6.4041   	-25   	-5.2723)		//210
	(3.0861   	-25   	-11.0194)		//211
	(3.0861   	25   	-11.0194)		//212
	(6.4041   	25   	-5.2723)		//213
	(7.6279   	25   	-3.1527)		//214
	(11.0861   	25   	2.8371)		//215
	(2.2218   	0.0601   	8.1823)		//216
	(-1.0681   	1.7154   	8.1823)		//217
	(-1.9259   	0.0099   	8.1823)		//218
	(-1.0836   	-1.6343   	8.1823)		//219
	(8   	0.0601   	8.1823)		//220
	(8   	3   	8.1823)		//221
	(3.7218   	3   	8.1823)		//222
	(-1.0964   	3   	8.1823)		//223
	(-4.0964   	0   	8.1823)		//224
	(-1.0964   	-3   	8.1823)		//225
	(3.7218   	-3   	8.1823)		//226
	(8   	-3   	8.1823)		//227
	(2.4622   	0.5824   	11.726)		//228
	(-1.1132   	0.6206   	11.726)		//229
	(-1.9738   	-0.2051   	11.726)		//230
	(-0.9928   	-1.1481   	11.726)		//231
	(8   	0.5824   	11.726)		//232
	(8   	3   	11.726)		//233
	(2.4622   	3   	11.726)		//234
	(-1.0964   	3   	11.726)		//235
	(-4.0964   	0   	11.726)		//236
	(-1.0964   	-3   	11.726)		//237
	(2.4622   	-3   	11.726)		//238
	(8   	-3   	11.726)		//239
	(2.551   	0.497   	15.565)		//240
	(-1.0622   	0.4925   	15.565)		//241
	(-1.9993   	-0.4374   	15.565)		//242
	(-1.0433   	-1.0674   	15.565)		//243
	(8   	0.497   	15.565)		//244
	(8   	3   	15.565)		//245
	(2.551   	3   	15.565)		//246
	(-1.0964   	3   	15.565)		//247
	(-4.0964   	0   	15.565)		//248
	(-1.0964   	-3   	15.565)		//249
	(2.551   	-3   	15.565)		//250
	(8   	-3   	15.565)		//251
	(2.4278   	0.3851   	19.9947)		//252
	(-1.0347   	0.4576   	19.9947)		//253
	(-1.9582   	-0.4001   	19.9947)		//254
	(-1.0584   	-1.0199   	19.9947)		//255
	(8   	0.3851   	19.9947)		//256
	(8   	3   	19.9947)		//257
	(2.4278   	3   	19.9947)		//258
	(-1.0964   	3   	19.9947)		//259
	(-4.0964   	0   	19.9947)		//260
	(-1.0964   	-3   	19.9947)		//261
	(2.4278   	-3   	19.9947)		//262
	(8   	-3   	19.9947)		//263
	(2.2824   	0.2935   	24.129)		//264
	(-0.9986   	0.3341   	24.129)		//265
	(-1.9098   	-0.3696   	24.129)		//266
	(-1.0832   	-0.8607   	24.129)		//267
	(8   	0.2935   	24.129)		//268
	(8   	3   	24.129)		//269
	(2.2824   	3   	24.129)		//270
	(-1.0964   	3   	24.129)		//271
	(-4.0964   	0   	24.129)		//272
	(-1.0964   	-3   	24.129)		//273
	(2.2824   	-3   	24.129)		//274
	(8   	-3   	24.129)		//275
	(2.1233   	0.2078   	27.968)		//276
	(-0.9756   	0.2669   	27.968)		//277
	(-1.8567   	-0.3411   	27.968)		//278
	(-1.1019   	-0.6881   	27.968)		//279
	(8   	0.2078   	27.968)		//280
	(8   	3   	27.968)		//281
	(2.1233   	3   	27.968)		//282
	(-1.0964   	3   	27.968)		//283
	(-4.0964   	0   	27.968)		//284
	(-1.0964   	-3   	27.968)		//285
	(2.1233   	-3   	27.968)		//286
	(8   	-3   	27.968)		//287
	(1.9246   	0.1138   	32.3977)		//288
	(-0.957   	0.234   	32.3977)		//289
	(-1.7905   	-0.3097   	32.3977)		//290
	(-1.097   	-0.6389   	32.3977)		//291
	(8   	0.1138   	32.3977)		//292
	(8   	3   	32.3977)		//293
	(1.9246   	3   	32.3977)		//294
	(-1.0964   	3   	32.3977)		//295
	(-4.0964   	0   	32.3977)		//296
	(-1.0964   	-3   	32.3977)		//297
	(1.9246   	-3   	32.3977)		//298
	(8   	-3   	32.3977)		//299
	(1.7582   	0.0436   	36.2367)		//300
	(-0.9414   	0.1898   	36.2367)		//301
	(-1.735   	-0.2863   	36.2367)		//302
	(-1.1002   	-0.5042   	36.2367)		//303
	(8   	0.0436   	36.2367)		//304
	(8   	3   	36.2367)		//305
	(1.7582   	3   	36.2367)		//306
	(-1.0964   	3   	36.2367)		//307
	(-4.0964   	0   	36.2367)		//308
	(-1.0964   	-3   	36.2367)		//309
	(1.7582   	-3   	36.2367)		//310
	(8   	-3   	36.2367)		//311
	(1.5772   	-0.0242   	40.371)		//312
	(-0.9282   	0.1629   	40.371)		//313
	(-1.6747   	-0.2637   	40.371)		//314
	(-1.0893   	-0.4753   	40.371)		//315
	(8   	-0.0242   	40.371)		//316
	(8   	3   	40.371)		//317
	(1.5772   	3   	40.371)		//318
	(-1.0964   	3   	40.371)		//319
	(-4.0964   	0   	40.371)		//320
	(-1.0964   	-3   	40.371)		//321
	(1.5772   	-3   	40.371)		//322
	(8   	-3   	40.371)		//323
	(1.3944   	-0.0802   	44.5053)		//324
	(-1.1048   	0.0617   	44.5053)		//325
	(-1.6138   	-0.2451   	44.5053)		//326
	(-1.0803   	-0.3837   	44.5053)		//327
	(8   	-0.0802   	44.5053)		//328
	(8   	3   	44.5053)		//329
	(1.3944   	3   	44.5053)		//330
	(-1.0964   	3   	44.5053)		//331
	(-4.0964   	0   	44.5053)		//332
	(-1.0964   	-3   	44.5053)		//333
	(1.3944   	-3   	44.5053)		//334
	(8   	-3   	44.5053)		//335
	(1.21   	-0.1198   	48.6397)		//336
	(-1.0812   	0.0427   	48.6397)		//337
	(-1.5523   	-0.2318   	48.6397)		//338
	(-1.0647   	-0.3653   	48.6397)		//339
	(8   	-0.1198   	48.6397)		//340
	(8   	3   	48.6397)		//341
	(1.21   	3   	48.6397)		//342
	(-1.0964   	3   	48.6397)		//343
	(-4.0964   	0   	48.6397)		//344
	(-1.0964   	-3   	48.6397)		//345
	(1.21   	-3   	48.6397)		//346
	(8   	-3   	48.6397)		//347
	(1.0382   	-0.1513   	52.4787)		//348
	(-1.06   	0.0247   	52.4787)		//349
	(-1.495   	-0.2213   	52.4787)		//350
	(-1.0497   	-0.3495   	52.4787)		//351
	(8   	-0.1513   	52.4787)		//352
	(8   	3   	52.4787)		//353
	(1.0382   	3   	52.4787)		//354
	(-1.0964   	3   	52.4787)		//355
	(-4.0964   	0   	52.4787)		//356
	(-1.0964   	-3   	52.4787)		//357
	(1.0382   	-3   	52.4787)		//358
	(8   	-3   	52.4787)		//359
	(0.8793   	-0.1768   	56.0224)		//360
	(-1.0408   	0.0077   	56.0224)		//361
	(-1.4421   	-0.2129   	56.0224)		//362
	(-1.0355   	-0.3351   	56.0224)		//363
	(8   	-0.1768   	56.0224)		//364
	(8   	3   	56.0224)		//365
	(0.8793   	3   	56.0224)		//366
	(-1.0964   	3   	56.0224)		//367
	(-4.0964   	0   	56.0224)		//368
	(-1.0964   	-3   	56.0224)		//369
	(0.8793   	-3   	56.0224)		//370
	(8   	-3   	56.0224)		//371
	(0.6889   	-0.194   	58.9755)		//372
	(-1.0195   	-0.014   	58.9755)		//373
	(-1.3786   	-0.2071   	58.9755)		//374
	(-1.0176   	-0.3194   	58.9755)		//375
	(8   	-0.194   	58.9755)		//376
	(8   	3   	58.9755)		//377
	(0.6889   	3   	58.9755)		//378
	(-1.0964   	3   	58.9755)		//379
	(-4.0964   	0   	58.9755)		//380
	(-1.0964   	-3   	58.9755)		//381
	(0.6889   	-3   	58.9755)		//382
	(8   	-3   	58.9755)		//383
	(0.2025   	-0.2019   	61.6333)		//384
	(-0.9694   	-0.073   	61.6333)		//385
	(-1.2165   	-0.2045   	61.6333)		//386
	(-0.969   	-0.2826   	61.6333)		//387
	(8   	-0.2019   	61.6333)		//388
	(8   	3   	61.6333)		//389
	(0.2025   	3   	61.6333)		//390
	(-1.0964   	3   	61.6333)		//391
	(-4.0964   	0   	61.6333)		//392
	(-1.0964   	-3   	61.6333)		//393
	(0.2025   	-3   	61.6333)		//394
	(8   	-3   	61.6333)		//395
	(2.2218   	0.0601   	65.0)		//396
	(-1.0681   	1.7154   	65.0)		//397
	(-1.9259   	0.0099   	65.0)		//398
	(-1.0836   	-1.6343   	65.0)		//399
	(8   	0.0601   	65.0)		//400
	(8   	3   	65.0)		//401
	(3.7218   	3   	65.0)		//402
	(-1.0964   	3   	65.0)		//403
	(-4.0964   	0   	65.0)		//404
	(-1.0964   	-3   	65.0)		//405
	(3.7218   	-3   	65.0)		//406
	(8   	-3   	65.0)		//407
	(-8.197   	0.0601   	-2.167)		//408
	(-6.552   	1.7154   	-5.0162)		//409
	(-6.1231   	0.0099   	-5.759)		//410
	(-6.5443   	-1.6343   	-5.0296)		//411
	(-11.0861   	0.0601   	2.8371)		//412
	(-11.0861   	3   	2.8371)		//413
	(-8.947   	3   	-0.868)		//414
	(-6.5379   	3   	-5.0407)		//415
	(-5.0379   	0   	-7.6387)		//416
	(-6.5379   	-3   	-5.0407)		//417
	(-8.947   	-3   	-0.868)		//418
	(-11.0861   	-3   	2.8371)		//419
	(-11.3861   	0.5824   	-3.7307)		//420
	(-9.5984   	0.6206   	-6.8271)		//421
	(-9.1681   	-0.2051   	-7.5724)		//422
	(-9.6586   	-1.1481   	-6.7228)		//423
	(-14.155   	0.5824   	1.0652)		//424
	(-14.155   	3   	1.0652)		//425
	(-11.3861   	3   	-3.7307)		//426
	(-9.6068   	3   	-6.8125)		//427
	(-8.1068   	0   	-9.4106)		//428
	(-9.6068   	-3   	-6.8125)		//429
	(-11.3861   	-3   	-3.7307)		//430
	(-14.155   	-3   	1.0652)		//431
	(-14.7552   	0.497   	-5.5733)		//432
	(-12.9486   	0.4925   	-8.7024)		//433
	(-12.48   	-0.4374   	-9.5139)		//434
	(-12.958   	-1.0674   	-8.686)		//435
	(-17.4797   	0.497   	-0.8543)		//436
	(-17.4797   	3   	-0.8543)		//437
	(-14.7552   	3   	-5.5733)		//438
	(-12.9315   	3   	-8.732)		//439
	(-11.4315   	0   	-11.3301)		//440
	(-12.9315   	-3   	-8.732)		//441
	(-14.7552   	-3   	-5.5733)		//442
	(-17.4797   	-3   	-0.8543)		//443
	(-18.5298   	0.3851   	-7.8948)		//444
	(-16.7986   	0.4576   	-10.8934)		//445
	(-16.3368   	-0.4001   	-11.6932)		//446
	(-16.7867   	-1.0199   	-10.914)		//447
	(-21.3159   	0.3851   	-3.0691)		//448
	(-21.3159   	3   	-3.0691)		//449
	(-18.5298   	3   	-7.8948)		//450
	(-16.7677   	3   	-10.9469)		//451
	(-15.2677   	0   	-13.5449)		//452
	(-16.7677   	-3   	-10.9469)		//453
	(-18.5298   	-3   	-7.8948)		//454
	(-21.3159   	-3   	-3.0691)		//455
	(-22.0375   	0.2935   	-10.0879)		//456
	(-20.397   	0.3341   	-12.9293)		//457
	(-19.9414   	-0.3696   	-13.7184)		//458
	(-20.3547   	-0.8607   	-13.0026)		//459
	(-24.8963   	0.2935   	-5.1363)		//460
	(-24.8963   	3   	-5.1363)		//461
	(-22.0375   	3   	-10.0879)		//462
	(-20.3481   	3   	-13.014)		//463
	(-18.8481   	0   	-15.6121)		//464
	(-20.3481   	-3   	-13.014)		//465
	(-22.0375   	-3   	-10.0879)		//466
	(-24.8963   	-3   	-5.1363)		//467
	(-25.2826   	0.2078   	-12.1452)		//468
	(-23.7332   	0.2669   	-14.8289)		//469
	(-23.2926   	-0.3411   	-15.5919)		//470
	(-23.67   	-0.6881   	-14.9383)		//471
	(-28.221   	0.2078   	-7.0558)		//472
	(-28.221   	3   	-7.0558)		//473
	(-25.2826   	3   	-12.1452)		//474
	(-23.6728   	3   	-14.9335)		//475
	(-22.1728   	0   	-17.5316)		//476
	(-23.6728   	-3   	-14.9335)		//477
	(-25.2826   	-3   	-12.1452)		//478
	(-28.221   	-3   	-7.0558)		//479
	(-29.0195   	0.1138   	-14.5321)		//480
	(-27.5787   	0.234   	-17.0276)		//481
	(-27.162   	-0.3097   	-17.7495)		//482
	(-27.5087   	-0.6389   	-17.1489)		//483
	(-32.0572   	0.1138   	-9.2706)		//484
	(-32.0572   	3   	-9.2706)		//485
	(-29.0195   	3   	-14.5321)		//486
	(-27.509   	3   	-17.1484)		//487
	(-26.009   	0   	-19.7464)		//488
	(-27.509   	-3   	-17.1484)		//489
	(-29.0195   	-3   	-14.5321)		//490
	(-32.0572   	-3   	-9.2706)		//491
	(-32.261   	0.0436   	-16.5957)		//492
	(-30.9112   	0.1898   	-18.9336)		//493
	(-30.5144   	-0.2863   	-19.6209)		//494
	(-30.8318   	-0.5042   	-19.0712)		//495
	(-35.3819   	0.0436   	-11.1901)		//496
	(-35.3819   	3   	-11.1901)		//497
	(-32.261   	3   	-16.5957)		//498
	(-30.8337   	3   	-19.0679)		//499
	(-29.3337   	0   	-21.6659)		//500
	(-30.8337   	-3   	-19.0679)		//501
	(-32.261   	-3   	-16.5957)		//502
	(-35.3819   	-3   	-11.1901)		//503
	(-35.7509   	-0.0242   	-18.8196)		//504
	(-34.4982   	0.1629   	-20.9893)		//505
	(-34.125   	-0.2637   	-21.6358)		//506
	(-34.4177   	-0.4753   	-21.1289)		//507
	(-38.9623   	-0.0242   	-13.2573)		//508
	(-38.9623   	3   	-13.2573)		//509
	(-35.7509   	3   	-18.8196)		//510
	(-34.4141   	3   	-21.135)		//511
	(-32.9141   	0   	-23.7331)		//512
	(-34.4141   	-3   	-21.135)		//513
	(-35.7509   	-3   	-18.8196)		//514
	(-38.9623   	-3   	-13.2573)		//515
	(-39.2399   	-0.0802   	-21.0451)		//516
	(-37.9903   	0.0617   	-23.2094)		//517
	(-37.7358   	-0.2451   	-23.6502)		//518
	(-38.0026   	-0.3837   	-23.1882)		//519
	(-42.5427   	-0.0802   	-15.3244)		//520
	(-42.5427   	3   	-15.3244)		//521
	(-39.2399   	3   	-21.0451)		//522
	(-37.9945   	3   	-23.2022)		//523
	(-36.4945   	0   	-25.8002)		//524
	(-37.9945   	-3   	-23.2022)		//525
	(-39.2399   	-3   	-21.0451)		//526
	(-42.5427   	-3   	-15.3244)		//527
	(-42.7282   	-0.1198   	-23.272)		//528
	(-41.5826   	0.0427   	-25.2562)		//529
	(-41.3471   	-0.2318   	-25.6642)		//530
	(-41.5909   	-0.3653   	-25.2419)		//531
	(-46.1232   	-0.1198   	-17.3916)		//532
	(-46.1232   	3   	-17.3916)		//533
	(-42.7282   	3   	-23.272)		//534
	(-41.575   	3   	-25.2694)		//535
	(-40.075   	0   	-27.8674)		//536
	(-41.575   	-3   	-25.2694)		//537
	(-42.7282   	-3   	-23.272)		//538
	(-46.1232   	-3   	-17.3916)		//539
	(-45.967   	-0.1513   	-25.3402)		//540
	(-44.9179   	0.0247   	-27.1573)		//541
	(-44.7004   	-0.2213   	-27.5341)		//542
	(-44.923   	-0.3495   	-27.1484)		//543
	(-49.4479   	-0.1513   	-19.3111)		//544
	(-49.4479   	3   	-19.3111)		//545
	(-45.967   	3   	-25.3402)		//546
	(-44.8997   	3   	-27.1889)		//547
	(-43.3997   	0   	-29.7869)		//548
	(-44.8997   	-3   	-27.1889)		//549
	(-45.967   	-3   	-25.3402)		//550
	(-49.4479   	-3   	-19.3111)		//551
	(-48.9565   	-0.1768   	-27.2497)		//552
	(-47.9964   	0.0077   	-28.9126)		//553
	(-47.7958   	-0.2129   	-29.2601)		//554
	(-47.9991   	-0.3351   	-28.908)		//555
	(-52.5168   	-0.1768   	-21.083)		//556
	(-52.5168   	3   	-21.083)		//557
	(-48.9565   	3   	-27.2497)		//558
	(-47.9686   	3   	-28.9607)		//559
	(-46.4686   	0   	-31.5588)		//560
	(-47.9686   	-3   	-28.9607)		//561
	(-48.9565   	-3   	-27.2497)		//562
	(-52.5168   	-3   	-21.083)		//563
	(-51.4187   	-0.194   	-28.8911)		//564
	(-50.5645   	-0.014   	-30.3707)		//565
	(-50.385   	-0.2071   	-30.6817)		//566
	(-50.5655   	-0.3194   	-30.369)		//567
	(-55.0743   	-0.194   	-22.5595)		//568
	(-55.0743   	3   	-22.5595)		//569
	(-51.4187   	3   	-28.8911)		//570
	(-50.5261   	3   	-30.4373)		//571
	(-49.0261   	0   	-33.0353)		//572
	(-50.5261   	-3   	-30.4373)		//573
	(-51.4187   	-3   	-28.8911)		//574
	(-55.0743   	-3   	-22.5595)		//575
	(-53.4773   	-0.2019   	-30.6413)		//576
	(-52.8913   	-0.073   	-31.6562)		//577
	(-52.7678   	-0.2045   	-31.8702)		//578
	(-52.8915   	-0.2826   	-31.6558)		//579
	(-57.376   	-0.2019   	-23.8884)		//580
	(-57.376   	3   	-23.8884)		//581
	(-53.4773   	3   	-30.6413)		//582
	(-52.8278   	3   	-31.7662)		//583
	(-51.3278   	0   	-34.3642)		//584
	(-52.8278   	-3   	-31.7662)		//585
	(-53.4773   	-3   	-30.6413)		//586
	(-57.376   	-3   	-23.8884)		//587
	(-57.4026   	0.0601   	-30.5759)		//588
	(-55.7576   	1.7154   	-33.425)		//589
	(-55.3287   	0.0099   	-34.1679)		//590
	(-55.7499   	-1.6343   	-33.4384)		//591
	(-60.2917   	0.0601   	-25.5718)		//592
	(-60.2917   	3   	-25.5718)		//593
	(-58.1526   	3   	-29.2768)		//594
	(-55.7435   	3   	-33.4495)		//595
	(-54.2435   	0   	-36.0476)		//596
	(-55.7435   	-3   	-33.4495)		//597
	(-58.1526   	-3   	-29.2768)		//598
	(-60.2917   	-3   	-25.5718)		//599
	(5.9752   	0.0601   	-6.0153)		//600
	(7.6201   	1.7154   	-3.1661)		//601
	(8.049   	0.0099   	-2.4233)		//602
	(7.6279   	-1.6343   	-3.1527)		//603
	(3.0861   	0.0601   	-11.0194)		//604
	(3.0861   	3   	-11.0194)		//605
	(5.2252   	3   	-7.3143)		//606
	(7.6343   	3   	-3.1416)		//607
	(9.1343   	0   	-0.5436)		//608
	(7.6343   	-3   	-3.1416)		//609
	(5.2252   	-3   	-7.3143)		//610
	(3.0861   	-3   	-11.0194)		//611
	(8.9239   	0.5824   	-7.9953)		//612
	(10.7116   	0.6206   	-4.8989)		//613
	(11.1419   	-0.2051   	-4.1536)		//614
	(10.6514   	-1.1481   	-5.0032)		//615
	(6.155   	0.5824   	-12.7912)		//616
	(6.155   	3   	-12.7912)		//617
	(8.9239   	3   	-7.9953)		//618
	(10.7032   	3   	-4.9135)		//619
	(12.2032   	0   	-2.3154)		//620
	(10.7032   	-3   	-4.9135)		//621
	(8.9239   	-3   	-7.9953)		//622
	(6.155   	-3   	-12.7912)		//623
	(12.2042   	0.497   	-9.9917)		//624
	(14.0108   	0.4925   	-6.8626)		//625
	(14.4793   	-0.4374   	-6.0511)		//626
	(14.0013   	-1.0674   	-6.879)		//627
	(9.4797   	0.497   	-14.7107)		//628
	(9.4797   	3   	-14.7107)		//629
	(12.2042   	3   	-9.9917)		//630
	(14.0279   	3   	-6.833)		//631
	(15.5279   	0   	-4.2349)		//632
	(14.0279   	-3   	-6.833)		//633
	(12.2042   	-3   	-9.9917)		//634
	(9.4797   	-3   	-14.7107)		//635
	(16.102   	0.3851   	-12.0999)		//636
	(17.8333   	0.4576   	-9.1013)		//637
	(18.295   	-0.4001   	-8.3015)		//638
	(17.8451   	-1.0199   	-9.0807)		//639
	(13.3159   	0.3851   	-16.9256)		//640
	(13.3159   	3   	-16.9256)		//641
	(16.102   	3   	-12.0999)		//642
	(17.8641   	3   	-9.0478)		//643
	(19.3641   	0   	-6.4498)		//644
	(17.8641   	-3   	-9.0478)		//645
	(16.102   	-3   	-12.0999)		//646
	(13.3159   	-3   	-16.9256)		//647
	(19.7551   	0.2935   	-14.0411)		//648
	(21.3956   	0.3341   	-11.1997)		//649
	(21.8512   	-0.3696   	-10.4106)		//650
	(21.4379   	-0.8607   	-11.1264)		//651
	(16.8963   	0.2935   	-18.9927)		//652
	(16.8963   	3   	-18.9927)		//653
	(19.7551   	3   	-14.0411)		//654
	(21.4445   	3   	-11.115)		//655
	(22.9445   	0   	-8.5169)		//656
	(21.4445   	-3   	-11.115)		//657
	(19.7551   	-3   	-14.0411)		//658
	(16.8963   	-3   	-18.9927)		//659
	(23.1593   	0.2078   	-15.8228)		//660
	(24.7088   	0.2669   	-13.1391)		//661
	(25.1493   	-0.3411   	-12.3761)		//662
	(24.7719   	-0.6881   	-13.0297)		//663
	(20.221   	0.2078   	-20.9122)		//664
	(20.221   	3   	-20.9122)		//665
	(23.1593   	3   	-15.8228)		//666
	(24.7692   	3   	-13.0345)		//667
	(26.2692   	0   	-10.4364)		//668
	(24.7692   	-3   	-13.0345)		//669
	(23.1593   	-3   	-15.8228)		//670
	(20.221   	-3   	-20.9122)		//671
	(27.0949   	0.1138   	-17.8656)		//672
	(28.5357   	0.234   	-15.3701)		//673
	(28.9525   	-0.3097   	-14.6482)		//674
	(28.6057   	-0.6389   	-15.2488)		//675
	(24.0572   	0.1138   	-23.1271)		//676
	(24.0572   	3   	-23.1271)		//677
	(27.0949   	3   	-17.8656)		//678
	(28.6054   	3   	-15.2493)		//679
	(30.1054   	0   	-12.6513)		//680
	(28.6054   	-3   	-15.2493)		//681
	(27.0949   	-3   	-17.8656)		//682
	(24.0572   	-3   	-23.1271)		//683
	(30.5028   	0.0436   	-19.641)		//684
	(31.8526   	0.1898   	-17.3031)		//685
	(32.2494   	-0.2863   	-16.6158)		//686
	(31.932   	-0.5042   	-17.1655)		//687
	(27.3819   	0.0436   	-25.0466)		//688
	(27.3819   	3   	-25.0466)		//689
	(30.5028   	3   	-19.641)		//690
	(31.9301   	3   	-17.1688)		//691
	(33.4301   	0   	-14.5708)		//692
	(31.9301   	-3   	-17.1688)		//693
	(30.5028   	-3   	-19.641)		//694
	(27.3819   	-3   	-25.0466)		//695
	(34.1737   	-0.0242   	-21.5514)		//696
	(35.4264   	0.1629   	-19.3817)		//697
	(35.7997   	-0.2637   	-18.7352)		//698
	(35.507   	-0.4753   	-19.2421)		//699
	(30.9623   	-0.0242   	-27.1137)		//700
	(30.9623   	3   	-27.1137)		//701
	(34.1737   	3   	-21.5514)		//702
	(35.5105   	3   	-19.236)		//703
	(37.0105   	0   	-16.6379)		//704
	(35.5105   	-3   	-19.236)		//705
	(34.1737   	-3   	-21.5514)		//706
	(30.9623   	-3   	-27.1137)		//707
	(37.8455   	-0.0802   	-23.4602)		//708
	(39.0951   	0.0617   	-21.2959)		//709
	(39.3496   	-0.2451   	-20.8551)		//710
	(39.0829   	-0.3837   	-21.3171)		//711
	(34.5427   	-0.0802   	-29.1809)		//712
	(34.5427   	3   	-29.1809)		//713
	(37.8455   	3   	-23.4602)		//714
	(39.0909   	3   	-21.3031)		//715
	(40.5909   	0   	-18.7051)		//716
	(39.0909   	-3   	-21.3031)		//717
	(37.8455   	-3   	-23.4602)		//718
	(34.5427   	-3   	-29.1809)		//719
	(41.5182   	-0.1198   	-25.3677)		//720
	(42.6638   	0.0427   	-23.3835)		//721
	(42.8994   	-0.2318   	-22.9755)		//722
	(42.6556   	-0.3653   	-23.3978)		//723
	(38.1232   	-0.1198   	-31.2481)		//724
	(38.1232   	3   	-31.2481)		//725
	(41.5182   	3   	-25.3677)		//726
	(42.6714   	3   	-23.3703)		//727
	(44.1714   	0   	-20.7723)		//728
	(42.6714   	-3   	-23.3703)		//729
	(41.5182   	-3   	-25.3677)		//730
	(38.1232   	-3   	-31.2481)		//731
	(44.9288   	-0.1513   	-27.1385)		//732
	(45.9779   	0.0247   	-25.3214)		//733
	(46.1954   	-0.2213   	-24.9446)		//734
	(45.9727   	-0.3495   	-25.3303)		//735
	(41.4479   	-0.1513   	-33.1676)		//736
	(41.4479   	3   	-33.1676)		//737
	(44.9288   	3   	-27.1385)		//738
	(45.9961   	3   	-25.2898)		//739
	(47.4961   	0   	-22.6918)		//740
	(45.9961   	-3   	-25.2898)		//741
	(44.9288   	-3   	-27.1385)		//742
	(41.4479   	-3   	-33.1676)		//743
	(48.0772   	-0.1768   	-28.7727)		//744
	(49.0372   	0.0077   	-27.1098)		//745
	(49.2379   	-0.2129   	-26.7623)		//746
	(49.0346   	-0.3351   	-27.1144)		//747
	(44.5168   	-0.1768   	-34.9394)		//748
	(44.5168   	3   	-34.9394)		//749
	(48.0772   	3   	-28.7727)		//750
	(49.065   	3   	-27.0617)		//751
	(50.565   	0   	-24.4636)		//752
	(49.065   	-3   	-27.0617)		//753
	(48.0772   	-3   	-28.7727)		//754
	(44.5168   	-3   	-34.9394)		//755
	(50.7298   	-0.194   	-30.0844)		//756
	(51.584   	-0.014   	-28.6048)		//757
	(51.7636   	-0.2071   	-28.2938)		//758
	(51.5831   	-0.3194   	-28.6065)		//759
	(47.0743   	-0.194   	-36.416)		//760
	(47.0743   	3   	-36.416)		//761
	(50.7298   	3   	-30.0844)		//762
	(51.6225   	3   	-28.5382)		//763
	(53.1225   	0   	-25.9402)		//764
	(51.6225   	-3   	-28.5382)		//765
	(50.7298   	-3   	-30.0844)		//766
	(47.0743   	-3   	-36.416)		//767
	(53.2748   	-0.2019   	-30.992)		//768
	(53.8607   	-0.073   	-29.9771)		//769
	(53.9843   	-0.2045   	-29.7631)		//770
	(53.8605   	-0.2826   	-29.9775)		//771
	(49.376   	-0.2019   	-37.7449)		//772
	(49.376   	3   	-37.7449)		//773
	(53.2748   	3   	-30.992)		//774
	(53.9242   	3   	-29.8671)		//775
	(55.4242   	0   	-27.2691)		//776
	(53.9242   	-3   	-29.8671)		//777
	(53.2748   	-3   	-30.992)		//778
	(49.376   	-3   	-37.7449)		//779
	(55.1808   	0.0601   	-34.4241)		//780
	(56.8257   	1.7154   	-31.575)		//781
	(57.2546   	0.0099   	-30.8321)		//782
	(56.8335   	-1.6343   	-31.5616)		//783
	(52.2917   	0.0601   	-39.4282)		//784
	(52.2917   	3   	-39.4282)		//785
	(54.4308   	3   	-35.7232)		//786
	(56.8399   	3   	-31.5505)		//787
	(58.3399   	0   	-28.9524)		//788
	(56.8399   	-3   	-31.5505)		//789
	(54.4308   	-3   	-35.7232)		//790
	(52.2917   	-3   	-39.4282)		//791
	(8   	3   	8.1823)		//792
	(-1.0964   	3   	8.1823)		//793
	(-3.2177   	2.1213   	8.1823)		//794
	(-3.2177   	-2.1213   	8.1823)		//795
	(-1.0964   	-3   	8.1823)		//796
	(8   	-3   	8.1823)		//797
	(8   	25   	8.1823)		//798
	(-1.0964   	25   	8.1823)		//799
	(-3.2177   	25   	8.1823)		//800
	(-8   	25   	8.1823)		//801
	(-8   	2.1213   	8.1823)		//802
	(-8   	-2.1213   	8.1823)		//803
	(-8   	-25   	8.1823)		//804
	(-3.2177   	-25   	8.1823)		//805
	(-1.0964   	-25   	8.1823)		//806
	(8   	-25   	8.1823)		//807
	(8   	3   	11.726)		//808
	(-1.0964   	3   	11.726)		//809
	(-3.2177   	2.1213   	11.726)		//810
	(-3.2177   	-2.1213   	11.726)		//811
	(-1.0964   	-3   	11.726)		//812
	(8   	-3   	11.726)		//813
	(8   	25   	11.726)		//814
	(-1.0964   	25   	11.726)		//815
	(-3.2177   	25   	11.726)		//816
	(-8   	25   	11.726)		//817
	(-8   	2.1213   	11.726)		//818
	(-8   	-2.1213   	11.726)		//819
	(-8   	-25   	11.726)		//820
	(-3.2177   	-25   	11.726)		//821
	(-1.0964   	-25   	11.726)		//822
	(8   	-25   	11.726)		//823
	(8   	3   	15.565)		//824
	(-1.0964   	3   	15.565)		//825
	(-3.2177   	2.1213   	15.565)		//826
	(-3.2177   	-2.1213   	15.565)		//827
	(-1.0964   	-3   	15.565)		//828
	(8   	-3   	15.565)		//829
	(8   	25   	15.565)		//830
	(-1.0964   	25   	15.565)		//831
	(-3.2177   	25   	15.565)		//832
	(-8   	25   	15.565)		//833
	(-8   	2.1213   	15.565)		//834
	(-8   	-2.1213   	15.565)		//835