// * * * * * * * * * * * * * * * * * * * * * * * * * * * * * * * * * * * * * //
FoamFile
{
	version     2.0;
	format      ascii;
	class       dictionary;
	object      blockMeshDict;
}
// * * * * * * * * * * * * * * * * * * * * * * * * * * * * * * * * * * * * * //
convertToMeters 1;

vertices
(
	(1.8411   	0.0223   	3.5297)		//0
	(-0.8319   	1.6428   	3.9075)		//1
	(-1.841   	-0.0223   	3.5297)		//2
	(-0.8463   	-1.6353   	3.9031)		//3
	(6   	0   	3.5297)		//4
	(6   	3   	3.5297)		//5
	(3   	3   	3.5297)		//6
	(-1.0   	3   	3.5297)		//7
	(-4.0   	0   	3.5297)		//8
	(-1.0   	-3   	3.5297)		//9
	(3   	-3   	3.5297)		//10
	(6   	-3   	3.5297)		//11
	(1.9954   	0.0407   	5.5245)		//12
	(-0.7944   	1.7322   	5.5245)		//13
	(-1.8478   	-0.0058   	5.5245)		//14
	(-0.8096   	-1.6894   	5.5245)		//15
	(6   	0   	5.5245)		//16
	(6   	3   	5.5245)		//17
	(3   	3   	5.5245)		//18
	(-1.0   	3   	5.5245)		//19
	(-4.0   	0   	5.5245)		//20
	(-1.0   	-3   	5.5245)		//21
	(3   	-3   	5.5245)		//22
	(6   	-3   	5.5245)		//23
	(2.2218   	0.0601   	8.1823)		//24
	(-0.7891   	1.8856   	8.1823)		//25
	(-1.9259   	0.0099   	8.1823)		//26
	(-0.8054   	-1.8071   	8.1823)		//27
	(6   	0   	8.1823)		//28
	(6   	3   	8.1823)		//29
	(3   	3   	8.1823)		//30
	(-1.0   	3   	8.1823)		//31
	(-4.0   	0   	8.1823)		//32
	(-1.0   	-3   	8.1823)		//33
	(3   	-3   	8.1823)		//34
	(6   	-3   	8.1823)		//35
	(2.4622   	0.5824   	11.726)		//36
	(-0.8048   	0.7044   	11.726)		//37
	(-1.9738   	-0.2051   	11.726)		//38
	(-0.9928   	-1.1481   	11.726)		//39
	(6   	0   	11.726)		//40
	(6   	3   	11.726)		//41
	(3   	3   	11.726)		//42
	(-1.0   	3   	11.726)		//43
	(-4.0   	0   	11.726)		//44
	(-1.0   	-3   	11.726)		//45
	(3   	-3   	11.726)		//46
	(6   	-3   	11.726)		//47
	(2.551   	0.497   	15.565)		//48
	(-0.7447   	0.5658   	15.565)		//49
	(-1.9993   	-0.4374   	15.565)		//50
	(-0.7362   	-1.0926   	15.565)		//51
	(6   	0   	15.565)		//52
	(6   	3   	15.565)		//53
	(3   	3   	15.565)		//54
	(-1.0   	3   	15.565)		//55
	(-4.0   	0   	15.565)		//56
	(-1.0   	-3   	15.565)		//57
	(3   	-3   	15.565)		//58
	(6   	-3   	15.565)		//59
	(2.4278   	0.3851   	19.9947)		//60
	(-0.7285   	0.5201   	19.9947)		//61
	(-1.9582   	-0.4001   	19.9947)		//62
	(-0.7644   	-1.0519   	19.9947)		//63
	(6   	0   	19.9947)		//64
	(6   	3   	19.9947)		//65
	(3   	3   	19.9947)		//66
	(-1.0   	3   	19.9947)		//67
	(-4.0   	0   	19.9947)		//68
	(-1.0   	-3   	19.9947)		//69
	(3   	-3   	19.9947)		//70
	(6   	-3   	19.9947)		//71
	(2.2824   	0.2935   	24.129)		//72
	(-0.9986   	0.3341   	24.129)		//73
	(-1.9098   	-0.3696   	24.129)		//74
	(-0.8051   	-0.8887   	24.129)		//75
	(6   	0   	24.129)		//76
	(6   	3   	24.129)		//77
	(3   	3   	24.129)		//78
	(-1.0   	3   	24.129)		//79
	(-4.0   	0   	24.129)		//80
	(-1.0   	-3   	24.129)		//81
	(3   	-3   	24.129)		//82
	(6   	-3   	24.129)		//83
	(2.1233   	0.2078   	27.968)		//84
	(-0.9756   	0.2669   	27.968)		//85
	(-1.8567   	-0.3411   	27.968)		//86
	(-0.8429   	-0.6936   	27.968)		//87
	(6   	0   	27.968)		//88
	(6   	3   	27.968)		//89
	(3   	3   	27.968)		//90
	(-1.0   	3   	27.968)		//91
	(-4.0   	0   	27.968)		//92
	(-1.0   	-3   	27.968)		//93
	(3   	-3   	27.968)		//94
	(6   	-3   	27.968)		//95
	(1.9246   	0.1138   	32.3977)		//96
	(-0.957   	0.234   	32.3977)		//97
	(-1.7905   	-0.3097   	32.3977)		//98
	(-0.8564   	-0.6481   	32.3977)		//99
	(6   	0   	32.3977)		//100
	(6   	3   	32.3977)		//101
	(3   	3   	32.3977)		//102
	(-1.0   	3   	32.3977)		//103
	(-4.0   	0   	32.3977)		//104
	(-1.0   	-3   	32.3977)		//105
	(3   	-3   	32.3977)		//106
	(6   	-3   	32.3977)		//107
	(1.7582   	0.0436   	36.2367)		//108
	(-0.9414   	0.1898   	36.2367)		//109
	(-1.735   	-0.2863   	36.2367)		//110
	(-0.8754   	-0.5077   	36.2367)		//111
	(6   	0   	36.2367)		//112
	(6   	3   	36.2367)		//113
	(3   	3   	36.2367)		//114
	(-1.0   	3   	36.2367)		//115
	(-4.0   	0   	36.2367)		//116
	(-1.0   	-3   	36.2367)		//117
	(3   	-3   	36.2367)		//118
	(6   	-3   	36.2367)		//119
	(1.5772   	-0.0242   	40.371)		//120
	(-0.9282   	0.1629   	40.371)		//121
	(-1.6747   	-0.2637   	40.371)		//122
	(-0.8806   	-0.4826   	40.371)		//123
	(6   	0   	40.371)		//124
	(6   	3   	40.371)		//125
	(3   	3   	40.371)		//126
	(-1.0   	3   	40.371)		//127
	(-4.0   	0   	40.371)		//128
	(-1.0   	-3   	40.371)		//129
	(3   	-3   	40.371)		//130
	(6   	-3   	40.371)		//131
	(1.3944   	-0.0802   	44.5053)		//132
	(-0.9153   	0.1107   	44.5053)		//133
	(-1.6138   	-0.2451   	44.5053)		//134
	(-0.888   	-0.3875   	44.5053)		//135
	(6   	0   	44.5053)		//136
	(6   	3   	44.5053)		//137
	(3   	3   	44.5053)		//138
	(-1.0   	3   	44.5053)		//139
	(-4.0   	0   	44.5053)		//140
	(-1.0   	-3   	44.5053)		//141
	(3   	-3   	44.5053)		//142
	(6   	-3   	44.5053)		//143
	(1.21   	-0.1198   	48.6397)		//144
	(-0.9068   	0.0852   	48.6397)		//145
	(-1.5523   	-0.2318   	48.6397)		//146
	(-0.8883   	-0.3712   	48.6397)		//147
	(6   	0   	48.6397)		//148
	(6   	3   	48.6397)		//149
	(3   	3   	48.6397)		//150
	(-1.0   	3   	48.6397)		//151
	(-4.0   	0   	48.6397)		//152
	(-1.0   	-3   	48.6397)		//153
	(3   	-3   	48.6397)		//154
	(6   	-3   	48.6397)		//155
	(1.0382   	-0.1513   	52.4787)		//156
	(-0.8996   	0.0616   	52.4787)		//157
	(-1.495   	-0.2213   	52.4787)		//158
	(-0.8881   	-0.3569   	52.4787)		//159
	(6   	0   	52.4787)		//160
	(6   	3   	52.4787)		//161
	(3   	3   	52.4787)		//162
	(-1.0   	3   	52.4787)		//163
	(-4.0   	0   	52.4787)		//164
	(-1.0   	-3   	52.4787)		//165
	(3   	-3   	52.4787)		//166
	(6   	-3   	52.4787)		//167
	(0.8793   	-0.1768   	56.0224)		//168
	(-0.8935   	0.0397   	56.0224)		//169
	(-1.4421   	-0.2129   	56.0224)		//170
	(-0.8875   	-0.3438   	56.0224)		//171
	(6   	0   	56.0224)		//172
	(6   	3   	56.0224)		//173
	(3   	3   	56.0224)		//174
	(-1.0   	3   	56.0224)		//175
	(-4.0   	0   	56.0224)		//176
	(-1.0   	-3   	56.0224)		//177
	(3   	-3   	56.0224)		//178
	(6   	-3   	56.0224)		//179
	(0.6889   	-0.194   	58.9755)		//180
	(-0.888   	0.0133   	58.9755)		//181
	(-1.3786   	-0.2071   	58.9755)		//182
	(-0.8859   	-0.3283   	58.9755)		//183
	(6   	0   	58.9755)		//184
	(6   	3   	58.9755)		//185
	(3   	3   	58.9755)		//186
	(-1.0   	3   	58.9755)		//187
	(-4.0   	0   	58.9755)		//188
	(-1.0   	-3   	58.9755)		//189
	(3   	-3   	58.9755)		//190
	(6   	-3   	58.9755)		//191
	(0.2025   	-0.2019   	61.6333)		//192
	(-0.8791   	-0.0547   	61.6333)		//193
	(-1.2165   	-0.2045   	61.6333)		//194
	(-0.8787   	-0.2892   	61.6333)		//195
	(6   	0   	61.6333)		//196
	(6   	3   	61.6333)		//197
	(3   	3   	61.6333)		//198
	(-1.0   	3   	61.6333)		//199
	(-4.0   	0   	61.6333)		//200
	(-1.0   	-3   	61.6333)		//201
	(3   	-3   	61.6333)		//202
	(6   	-3   	61.6333)		//203
	(2.0   	0.0   	65.0)		//204
	(-1.1111   	1.6629   	65.0)		//205
	(-2.0   	-0.0   	65.0)		//206
	(-1.1111   	-1.6629   	65.0)		//207
	(6   	0   	65.0)		//208
	(6   	3   	65.0)		//209
	(3   	3   	65.0)		//210
	(-1.0   	3   	65.0)		//211
	(-4.0   	0   	65.0)		//212
	(-1.0   	-3   	65.0)		//213
	(3   	-3   	65.0)		//214
	(6   	-3   	65.0)		//215
);

blocks
(
	hex (0 4 5 6 12 16 17 18) rotatingZone (6 15 10) edgeGrading (1 1 1 1 30 1 1 30 1 1 1 1)
	hex (1 0 6 7 13 12 18 19) rotatingZone (8 15 10) simpleGrading (1 30 1)
	hex (2 1 7 8 14 13 19 20) rotatingZone (8 15 10) simpleGrading (1 30 1)
	hex (3 2 8 9 15 14 20 21) rotatingZone (8 15 10) simpleGrading (1 30 1)
	hex (0 3 9 10 12 15 21 22) rotatingZone (8 15 10) simpleGrading (1 30 1)
	hex (4 0 10 11 16 12 22 23) rotatingZone (6 15 10) edgeGrading (1 1 1 1 1 30 30 1 1 1 1 1)
	hex (12 16 17 18 24 28 29 30) rotatingZone (6 15 10) edgeGrading (1 1 1 1 30 1 1 30 1 1 1 1)
	hex (13 12 18 19 25 24 30 31) rotatingZone (8 15 10) simpleGrading (1 30 1)
	hex (14 13 19 20 26 25 31 32) rotatingZone (8 15 10) simpleGrading (1 30 1)
	hex (15 14 20 21 27 26 32 33) rotatingZone (8 15 10) simpleGrading (1 30 1)
	hex (12 15 21 22 24 27 33 34) rotatingZone (8 15 10) simpleGrading (1 30 1)
	hex (16 12 22 23 28 24 34 35) rotatingZone (6 15 10) edgeGrading (1 1 1 1 1 30 30 1 1 1 1 1)
	hex (24 28 29 30 36 40 41 42) rotatingZone (6 15 10) edgeGrading (1 1 1 1 30 1 1 30 1 1 1 1)
	hex (25 24 30 31 37 36 42 43) rotatingZone (8 15 10) simpleGrading (1 30 1)
	hex (26 25 31 32 38 37 43 44) rotatingZone (8 15 10) simpleGrading (1 30 1)
	hex (27 26 32 33 39 38 44 45) rotatingZone (8 15 10) simpleGrading (1 30 1)
	hex (24 27 33 34 36 39 45 46) rotatingZone (8 15 10) simpleGrading (1 30 1)
	hex (28 24 34 35 40 36 46 47) rotatingZone (6 15 10) edgeGrading (1 1 1 1 1 30 30 1 1 1 1 1)
	hex (36 40 41 42 48 52 53 54) rotatingZone (6 15 10) edgeGrading (1 1 1 1 30 1 1 30 1 1 1 1)
	hex (37 36 42 43 49 48 54 55) rotatingZone (8 15 10) simpleGrading (1 30 1)
	hex (38 37 43 44 50 49 55 56) rotatingZone (8 15 10) simpleGrading (1 30 1)
	hex (39 38 44 45 51 50 56 57) rotatingZone (8 15 10) simpleGrading (1 30 1)
	hex (36 39 45 46 48 51 57 58) rotatingZone (8 15 10) simpleGrading (1 30 1)
	hex (40 36 46 47 52 48 58 59) rotatingZone (6 15 10) edgeGrading (1 1 1 1 1 30 30 1 1 1 1 1)
	hex (48 52 53 54 60 64 65 66) rotatingZone (6 15 10) edgeGrading (1 1 1 1 30 1 1 30 1 1 1 1)
	hex (49 48 54 55 61 60 66 67) rotatingZone (8 15 10) simpleGrading (1 30 1)
	hex (50 49 55 56 62 61 67 68) rotatingZone (8 15 10) simpleGrading (1 30 1)
	hex (51 50 56 57 63 62 68 69) rotatingZone (8 15 10) simpleGrading (1 30 1)
	hex (48 51 57 58 60 63 69 70) rotatingZone (8 15 10) simpleGrading (1 30 1)
	hex (52 48 58 59 64 60 70 71) rotatingZone (6 15 10) edgeGrading (1 1 1 1 1 30 30 1 1 1 1 1)
	hex (60 64 65 66 72 76 77 78) rotatingZone (6 15 10) edgeGrading (1 1 1 1 30 1 1 30 1 1 1 1)
	hex (61 60 66 67 73 72 78 79) rotatingZone (8 15 10) simpleGrading (1 30 1)
	hex (62 61 67 68 74 73 79 80) rotatingZone (8 15 10) simpleGrading (1 30 1)
	hex (63 62 68 69 75 74 80 81) rotatingZone (8 15 10) simpleGrading (1 30 1)
	hex (60 63 69 70 72 75 81 82) rotatingZone (8 15 10) simpleGrading (1 30 1)
	hex (64 60 70 71 76 72 82 83) rotatingZone (6 15 10) edgeGrading (1 1 1 1 1 30 30 1 1 1 1 1)
	hex (72 76 77 78 84 88 89 90) rotatingZone (6 15 10) edgeGrading (1 1 1 1 30 1 1 30 1 1 1 1)
	hex (73 72 78 79 85 84 90 91) rotatingZone (8 15 10) simpleGrading (1 30 1)
	hex (74 73 79 80 86 85 91 92) rotatingZone (8 15 10) simpleGrading (1 30 1)
	hex (75 74 80 81 87 86 92 93) rotatingZone (8 15 10) simpleGrading (1 30 1)
	hex (72 75 81 82 84 87 93 94) rotatingZone (8 15 10) simpleGrading (1 30 1)
	hex (76 72 82 83 88 84 94 95) rotatingZone (6 15 10) edgeGrading (1 1 1 1 1 30 30 1 1 1 1 1)
	hex (84 88 89 90 96 100 101 102) rotatingZone (6 15 10) edgeGrading (1 1 1 1 30 1 1 30 1 1 1 1)
	hex (85 84 90 91 97 96 102 103) rotatingZone (8 15 10) simpleGrading (1 30 1)
	hex (86 85 91 92 98 97 103 104) rotatingZone (8 15 10) simpleGrading (1 30 1)
	hex (87 86 92 93 99 98 104 105) rotatingZone (8 15 10) simpleGrading (1 30 1)
	hex (84 87 93 94 96 99 105 106) rotatingZone (8 15 10) simpleGrading (1 30 1)
	hex (88 84 94 95 100 96 106 107) rotatingZone (6 15 10) edgeGrading (1 1 1 1 1 30 30 1 1 1 1 1)
	hex (96 100 101 102 108 112 113 114) rotatingZone (6 15 10) edgeGrading (1 1 1 1 30 1 1 30 1 1 1 1)
	hex (97 96 102 103 109 108 114 115) rotatingZone (8 15 10) simpleGrading (1 30 1)
	hex (98 97 103 104 110 109 115 116) rotatingZone (8 15 10) simpleGrading (1 30 1)
	hex (99 98 104 105 111 110 116 117) rotatingZone (8 15 10) simpleGrading (1 30 1)
	hex (96 99 105 106 108 111 117 118) rotatingZone (8 15 10) simpleGrading (1 30 1)
	hex (100 96 106 107 112 108 118 119) rotatingZone (6 15 10) edgeGrading (1 1 1 1 1 30 30 1 1 1 1 1)
	hex (108 112 113 114 120 124 125 126) rotatingZone (6 15 10) edgeGrading (1 1 1 1 30 1 1 30 1 1 1 1)
	hex (109 108 114 115 121 120 126 127) rotatingZone (8 15 10) simpleGrading (1 30 1)
	hex (110 109 115 116 122 121 127 128) rotatingZone (8 15 10) simpleGrading (1 30 1)
	hex (111 110 116 117 123 122 128 129) rotatingZone (8 15 10) simpleGrading (1 30 1)
	hex (108 111 117 118 120 123 129 130) rotatingZone (8 15 10) simpleGrading (1 30 1)
	hex (112 108 118 119 124 120 130 131) rotatingZone (6 15 10) edgeGrading (1 1 1 1 1 30 30 1 1 1 1 1)
	hex (120 124 125 126 132 136 137 138) rotatingZone (6 15 10) edgeGrading (1 1 1 1 30 1 1 30 1 1 1 1)
	hex (121 120 126 127 133 132 138 139) rotatingZone (8 15 10) simpleGrading (1 30 1)
	hex (122 121 127 128 134 133 139 140) rotatingZone (8 15 10) simpleGrading (1 30 1)
	hex (123 122 128 129 135 134 140 141) rotatingZone (8 15 10) simpleGrading (1 30 1)
	hex (120 123 129 130 132 135 141 142) rotatingZone (8 15 10) simpleGrading (1 30 1)
	hex (124 120 130 131 136 132 142 143) rotatingZone (6 15 10) edgeGrading (1 1 1 1 1 30 30 1 1 1 1 1)
	hex (132 136 137 138 144 148 149 150) rotatingZone (6 15 10) edgeGrading (1 1 1 1 30 1 1 30 1 1 1 1)
	hex (133 132 138 139 145 144 150 151) rotatingZone (8 15 10) simpleGrading (1 30 1)
	hex (134 133 139 140 146 145 151 152) rotatingZone (8 15 10) simpleGrading (1 30 1)
	hex (135 134 140 141 147 146 152 153) rotatingZone (8 15 10) simpleGrading (1 30 1)
	hex (132 135 141 142 144 147 153 154) rotatingZone (8 15 10) simpleGrading (1 30 1)
	hex (136 132 142 143 148 144 154 155) rotatingZone (6 15 10) edgeGrading (1 1 1 1 1 30 30 1 1 1 1 1)
	hex (144 148 149 150 156 160 161 162) rotatingZone (6 15 10) edgeGrading (1 1 1 1 30 1 1 30 1 1 1 1)
	hex (145 144 150 151 157 156 162 163) rotatingZone (8 15 10) simpleGrading (1 30 1)
	hex (146 145 151 152 158 157 163 164) rotatingZone (8 15 10) simpleGrading (1 30 1)
	hex (147 146 152 153 159 158 164 165) rotatingZone (8 15 10) simpleGrading (1 30 1)
	hex (144 147 153 154 156 159 165 166) rotatingZone (8 15 10) simpleGrading (1 30 1)
	hex (148 144 154 155 160 156 166 167) rotatingZone (6 15 10) edgeGrading (1 1 1 1 1 30 30 1 1 1 1 1)
	hex (156 160 161 162 168 172 173 174) rotatingZone (6 15 10) edgeGrading (1 1 1 1 30 1 1 30 1 1 1 1)
	hex (157 156 162 163 169 168 174 175) rotatingZone (8 15 10) simpleGrading (1 30 1)
	hex (158 157 163 164 170 169 175 176) rotatingZone (8 15 10) simpleGrading (1 30 1)
	hex (159 158 164 165 171 170 176 177) rotatingZone (8 15 10) simpleGrading (1 30 1)
	hex (156 159 165 166 168 171 177 178) rotatingZone (8 15 10) simpleGrading (1 30 1)
	hex (160 156 166 167 172 168 178 179) rotatingZone (6 15 10) edgeGrading (1 1 1 1 1 30 30 1 1 1 1 1)
	hex (168 172 173 174 180 184 185 186) rotatingZone (6 15 10) edgeGrading (1 1 1 1 30 1 1 30 1 1 1 1)
	hex (169 168 174 175 181 180 186 187) rotatingZone (8 15 10) simpleGrading (1 30 1)
	hex (170 169 175 176 182 181 187 188) rotatingZone (8 15 10) simpleGrading (1 30 1)
	hex (171 170 176 177 183 182 188 189) rotatingZone (8 15 10) simpleGrading (1 30 1)
	hex (168 171 177 178 180 183 189 190) rotatingZone (8 15 10) simpleGrading (1 30 1)
	hex (172 168 178 179 184 180 190 191) rotatingZone (6 15 10) edgeGrading (1 1 1 1 1 30 30 1 1 1 1 1)
	hex (180 184 185 186 192 196 197 198) rotatingZone (6 15 10) edgeGrading (1 1 1 1 30 1 1 30 1 1 1 1)
	hex (181 180 186 187 193 192 198 199) rotatingZone (8 15 10) simpleGrading (1 30 1)
	hex (182 181 187 188 194 193 199 200) rotatingZone (8 15 10) simpleGrading (1 30 1)
	hex (183 182 188 189 195 194 200 201) rotatingZone (8 15 10) simpleGrading (1 30 1)
	hex (180 183 189 190 192 195 201 202) rotatingZone (8 15 10) simpleGrading (1 30 1)
	hex (184 180 190 191 196 192 202 203) rotatingZone (6 15 10) edgeGrading (1 1 1 1 1 30 30 1 1 1 1 1)
	hex (192 196 197 198 204 208 209 210) rotatingZone (6 15 10) edgeGrading (1 1 1 1 30 1 1 1 1 1 1 1)
	hex (193 192 198 199 205 204 210 211) rotatingZone (8 15 10) edgeGrading (1 1 1 1 30 30 1 1 1 1 1 1)
	hex (194 193 199 200 206 205 211 212) rotatingZone (8 15 10) edgeGrading (1 1 1 1 30 30 1 1 1 1 1 1)
	hex (195 194 200 201 207 206 212 213) rotatingZone (8 15 10) edgeGrading (1 1 1 1 30 30 1 1 1 1 1 1)
	hex (192 195 201 202 204 207 213 214) rotatingZone (8 15 10) edgeGrading (1 1 1 1 30 30 1 1 1 1 1 1)
	hex (196 192 202 203 208 204 214 215) rotatingZone (6 15 10) edgeGrading (1 1 1 1 1 30 1 1 1 1 1 1)
	hex (192 193 194 195 204 205 206 207) rotatingZone (8 8 10) simpleGrading (1 1 1)
);

edges
(
	BSpline 1 0
	(
		(-0.5636 1.753 3.9445)
		(-0.2815 1.8198 3.9723)
		(0.0077 1.8414 3.9992)
		(0.2968 1.8173 3.9708)
		(0.5786 1.7482 3.943)
		(0.8464 1.6353 3.9031)
		(1.0933 1.4819 3.8282)
		(1.3138 1.29 3.7613)
		(1.5022 1.0655 3.7042)
		(1.6559 0.8049 3.6286)
		(1.7926 0.424 3.5555)
	)
	BSpline 2 1
	(
		(-1.8204 0.2795 3.5407)
		(-1.7525 0.5647 3.577)
		(-1.6414 0.835 3.6364)
		(-1.4893 1.0828 3.7081)
		(-1.3005 1.3037 3.7654)
		(-1.0795 1.4918 3.8324)
	)
	BSpline 3 2
	(
		(-1.0933 -1.4819 3.8282)
		(-1.3138 -1.29 3.7613)
		(-1.5022 -1.0655 3.7042)
		(-1.6559 -0.8049 3.6286)
		(-1.7926 -0.424 3.5555)
	)
	BSpline 0 3
	(
		(1.8204 -0.2795 3.5407)
		(1.7525 -0.5647 3.577)
		(1.6414 -0.835 3.6364)
		(1.4893 -1.0828 3.7081)
		(1.3005 -1.3037 3.7654)
		(1.0795 -1.4918 3.8324)
		(0.8319 -1.6428 3.9075)
		(0.5636 -1.753 3.9445)
		(0.2815 -1.8198 3.9723)
		(-0.0077 -1.8414 4.0008)
		(-0.2968 -1.8173 3.9708)
		(-0.5786 -1.7482 3.943)
	)
arc 8 7 (-3.121320343559643 2.121320343559643 3.5297)
arc 8 9 (-3.121320343559643 -2.121320343559643 3.5297)
	BSpline 13 12
	(
		(-0.5145 1.8472 5.5245)
		(-0.22 1.9168 5.5245)
		(0.0818 1.9394 5.5245)
		(0.3836 1.9143 5.5245)
		(0.6777 1.8422 5.5245)
		(0.9572 1.7243 5.5245)
		(1.215 1.5641 5.5245)
		(1.4451 1.3639 5.5245)
		(1.6418 1.1295 5.5245)
		(1.8022 0.8576 5.5245)
		(1.9449 0.46 5.5245)
	)
	BSpline 14 13
	(
		(-1.8262 0.3092 5.5245)
		(-1.7554 0.6069 5.5245)
		(-1.6394 0.889 5.5245)
		(-1.4806 1.1477 5.5245)
		(-1.2836 1.3782 5.5245)
		(-1.0529 1.5745 5.5245)
	)
	BSpline 15 14
	(
		(-1.0674 -1.5292 5.5245)
		(-1.2975 -1.329 5.5245)
		(-1.4941 -1.0946 5.5245)
		(-1.6546 -0.8227 5.5245)
		(-1.7973 -0.4251 5.5245)
	)
	BSpline 12 15
	(
		(1.9738 -0.2743 5.5245)
		(1.903 -0.5719 5.5245)
		(1.787 -0.8541 5.5245)
		(1.6283 -1.1128 5.5245)
		(1.4312 -1.3433 5.5245)
		(1.2005 -1.5396 5.5245)
		(0.9421 -1.6973 5.5245)
		(0.6621 -1.8123 5.5245)
		(0.3676 -1.8819 5.5245)
		(0.0658 -1.9045 5.5245)
		(-0.236 -1.8794 5.5245)
		(-0.5301 -1.8073 5.5245)
	)
arc 20 19 (-3.121320343559643 2.121320343559643 5.5245)
arc 20 21 (-3.121320343559643 -2.121320343559643 5.5245)
	BSpline 25 24
	(
		(-0.487 2.0097 8.1823)
		(-0.1691 2.0849 8.1823)
		(0.1566 2.1093 8.1823)
		(0.4822 2.0821 8.1823)
		(0.7997 2.0043 8.1823)
		(1.1013 1.8771 8.1823)
		(1.3795 1.7042 8.1823)
		(1.6279 1.4881 8.1823)
		(1.8401 1.2352 8.1823)
		(2.0132 0.9417 8.1823)
		(2.1672 0.5126 8.1823)
	)
	BSpline 26 25
	(
		(-1.9026 0.3499 8.1823)
		(-1.8262 0.6711 8.1823)
		(-1.701 0.9756 8.1823)
		(-1.5297 1.2548 8.1823)
		(-1.317 1.5036 8.1823)
		(-1.0681 1.7154 8.1823)
	)
	BSpline 27 26
	(
		(-1.0836 -1.6343 8.1823)
		(-1.332 -1.4181 8.1823)
		(-1.5442 -1.1652 8.1823)
		(-1.7174 -0.8717 8.1823)
		(-1.8714 -0.4427 8.1823)
	)
	BSpline 24 27
	(
		(2.1985 -0.2799 8.1823)
		(2.1221 -0.6011 8.1823)
		(1.9968 -0.9056 8.1823)
		(1.8255 -1.1848 8.1823)
		(1.6129 -1.4336 8.1823)
		(1.3639 -1.6454 8.1823)
		(1.085 -1.8156 8.1823)
		(0.7828 -1.9397 8.1823)
		(0.465 -2.0149 8.1823)
		(0.1393 -2.0393 8.1823)
		(-0.1864 -2.0121 8.1823)
		(-0.5038 -1.9343 8.1823)
	)
arc 32 31 (-3.121320343559643 2.121320343559643 8.1823)
arc 32 33 (-3.121320343559643 -2.121320343559643 8.1823)
	BSpline 37 36
	(
		(-0.4669 0.7568 11.726)
		(-0.109 0.7814 11.726)
		(0.2593 0.7817 11.726)
		(0.6273 0.764 11.726)
		(0.984 0.7368 11.726)
		(1.3194 0.7062 11.726)
		(1.6243 0.6768 11.726)
		(1.8908 0.6515 11.726)
		(2.1119 0.6318 11.726)
		(2.2827 0.6167 11.726)
		(2.3992 0.6052 11.726)
	)
	BSpline 38 37
	(
		(-1.9062 -0.0096 11.726)
		(-1.7834 0.1782 11.726)
		(-1.6077 0.3506 11.726)
		(-1.3828 0.5009 11.726)
		(-1.1132 0.6206 11.726)
	)
	BSpline 39 38
	(
		(-1.2678 -1.0863 11.726)
		(-1.5083 -0.9847 11.726)
		(-1.7067 -0.8529 11.726)
		(-1.8567 -0.7002 11.726)
		(-1.9697 -0.4659 11.726)
	)
	BSpline 36 39
	(
		(2.409 0.5637 11.726)
		(2.2985 0.5501 11.726)
		(2.141 0.5088 11.726)
		(1.943 0.4308 11.726)
		(1.7116 0.308 11.726)
		(1.4539 0.1377 11.726)
		(1.1755 -0.0727 11.726)
		(0.8811 -0.3092 11.726)
		(0.5752 -0.5539 11.726)
		(0.2609 -0.7821 11.726)
		(-0.0584 -0.9702 11.726)
		(-0.3779 -1.1005 11.726)
		(-0.6923 -1.1586 11.726)
	)
arc 44 43 (-3.121320343559643 2.121320343559643 11.726)
arc 44 45 (-3.121320343559643 -2.121320343559643 11.726)
	BSpline 49 48
	(
		(-0.3992 0.6116 15.565)
		(-0.0355 0.6358 15.565)
		(0.3366 0.6412 15.565)
		(0.7071 0.6324 15.565)
		(1.0657 0.6148 15.565)
		(1.4027 0.5933 15.565)
		(1.7092 0.5714 15.565)
		(1.9771 0.5519 15.565)
		(2.1997 0.5362 15.565)
		(2.3717 0.524 15.565)
		(2.489 0.5147 15.565)
	)
	BSpline 50 49
	(
		(-1.9832 -0.2323 15.565)
		(-1.9014 -0.069 15.565)
		(-1.7655 0.094 15.565)
		(-1.5777 0.2475 15.565)
		(-1.3418 0.3836 15.565)
		(-1.0622 0.4925 15.565)
	)
	BSpline 51 50
	(
		(-1.0433 -1.0674 15.565)
		(-1.3226 -0.9925 15.565)
		(-1.5641 -0.8847 15.565)
		(-1.7597 -0.7574 15.565)
		(-1.9026 -0.6236 15.565)
	)
	BSpline 48 51
	(
		(2.4948 0.4866 15.565)
		(2.3808 0.4801 15.565)
		(2.2182 0.4467 15.565)
		(2.0129 0.378 15.565)
		(1.7717 0.2677 15.565)
		(1.5012 0.1149 15.565)
		(1.2071 -0.0724 15.565)
		(0.8954 -0.2828 15.565)
		(0.5724 -0.5047 15.565)
		(0.2436 -0.7209 15.565)
		(-0.0864 -0.9091 15.565)
		(-0.4142 -1.0412 15.565)
	)
arc 56 55 (-3.121320343559643 2.121320343559643 15.565)
arc 56 57 (-3.121320343559643 -2.121320343559643 15.565)
	BSpline 61 60
	(
		(-0.3961 0.556 19.9947)
		(-0.047 0.5711 19.9947)
		(0.3097 0.5686 19.9947)
		(0.6644 0.5527 19.9947)
		(1.0076 0.5286 19.9947)
		(1.3299 0.5012 19.9947)
		(1.623 0.4741 19.9947)
		(1.8792 0.4499 19.9947)
		(2.0921 0.4302 19.9947)
		(2.2566 0.4148 19.9947)
		(2.3688 0.4032 19.9947)
	)
	BSpline 62 61
	(
		(-1.9368 -0.2085 19.9947)
		(-1.8539 -0.0565 19.9947)
		(-1.7193 0.0946 19.9947)
		(-1.5352 0.2361 19.9947)
		(-1.3055 0.3602 19.9947)
		(-1.0347 0.4576 19.9947)
	)
	BSpline 63 62
	(
		(-1.0584 -1.0199 19.9947)
		(-1.3244 -0.9412 19.9947)
		(-1.5533 -0.8322 19.9947)
		(-1.7375 -0.7065 19.9947)
		(-1.8709 -0.5767 19.9947)
	)
	BSpline 60 63
	(
		(2.3735 0.3767 19.9947)
		(2.264 0.3735 19.9947)
		(2.1073 0.3456 19.9947)
		(1.9087 0.2851 19.9947)
		(1.6746 0.1858 19.9947)
		(1.4113 0.0469 19.9947)
		(1.1245 -0.1241 19.9947)
		(0.8201 -0.3165 19.9947)
		(0.5047 -0.52 19.9947)
		(0.184 -0.7186 19.9947)
		(-0.137 -0.8912 19.9947)
		(-0.4545 -1.0104 19.9947)
	)
arc 68 67 (-3.121320343559643 2.121320343559643 19.9947)
arc 68 69 (-3.121320343559643 -2.121320343559643 19.9947)
	BSpline 73 72
	(
		(-0.7072 0.3968 24.129)
		(-0.3914 0.4339 24.129)
		(-0.06 0.4503 24.129)
		(0.2781 0.451 24.129)
		(0.6138 0.4402 24.129)
		(0.9383 0.4219 24.129)
		(1.2431 0.3998 24.129)
		(1.5204 0.3769 24.129)
		(1.7629 0.3554 24.129)
		(1.9646 0.337 24.129)
		(2.1205 0.3219 24.129)
		(2.2269 0.3101 24.129)
	)
	BSpline 74 73
	(
		(-1.8785 -0.2329 24.129)
		(-1.7926 -0.115 24.129)
		(-1.6587 0.009 24.129)
		(-1.4792 0.1308 24.129)
		(-1.2577 0.2423 24.129)
	)
	BSpline 75 74
	(
		(-1.0832 -0.8607 24.129)
		(-1.3329 -0.7939 24.129)
		(-1.5459 -0.7041 24.129)
		(-1.7154 -0.603 24.129)
		(-1.8361 -0.5008 24.129)
	)
	BSpline 72 75
	(
		(2.2305 0.2875 24.129)
		(2.1259 0.288 24.129)
		(1.9749 0.2719 24.129)
		(1.7827 0.2301 24.129)
		(1.5555 0.1549 24.129)
		(1.2996 0.0429 24.129)
		(1.021 -0.1009 24.129)
		(0.7254 -0.2653 24.129)
		(0.4188 -0.4385 24.129)
		(0.1073 -0.607 24.129)
		(-0.2036 -0.7534 24.129)
		(-0.5092 -0.8543 24.129)
	)
arc 80 79 (-3.121320343559643 2.121320343559643 24.129)
arc 80 81 (-3.121320343559643 -2.121320343559643 24.129)
	BSpline 85 84
	(
		(-0.7007 0.3361 27.968)
		(-0.4029 0.3782 27.968)
		(-0.0898 0.3939 27.968)
		(0.2297 0.3912 27.968)
		(0.5471 0.3758 27.968)
		(0.8539 0.3527 27.968)
		(1.1419 0.3264 27.968)
		(1.4038 0.2998 27.968)
		(1.6329 0.2751 27.968)
		(1.8235 0.2539 27.968)
		(1.9707 0.2368 27.968)
		(2.0712 0.2238 27.968)
	)
	BSpline 86 85
	(
		(-1.8226 -0.2269 27.968)
		(-1.7372 -0.1305 27.968)
		(-1.6067 -0.0266 27.968)
		(-1.4335 0.0786 27.968)
		(-1.2216 0.1785 27.968)
	)
	BSpline 87 86
	(
		(-1.1019 -0.6881 27.968)
		(-1.3321 -0.6557 27.968)
		(-1.527 -0.6034 27.968)
		(-1.6812 -0.5365 27.968)
		(-1.7908 -0.457 27.968)
	)
	BSpline 84 87
	(
		(2.0742 0.2016 27.968)
		(1.9752 0.2046 27.968)
		(1.8307 0.2016 27.968)
		(1.6461 0.1799 27.968)
		(1.4275 0.1283 27.968)
		(1.1816 0.0392 27.968)
		(0.9144 -0.0859 27.968)
		(0.631 -0.2321 27.968)
		(0.3359 -0.3783 27.968)
		(0.0344 -0.5064 27.968)
		(-0.2674 -0.6037 27.968)
		(-0.5623 -0.6664 27.968)
	)
arc 92 91 (-3.121320343559643 2.121320343559643 27.968)
arc 92 93 (-3.121320343559643 -2.121320343559643 27.968)
	BSpline 97 96
	(
		(-0.6999 0.2932 32.3977)
		(-0.422 0.3266 32.3977)
		(-0.1304 0.335 32.3977)
		(0.1668 0.3257 32.3977)
		(0.4618 0.3045 32.3977)
		(0.7467 0.2763 32.3977)
		(1.0141 0.2455 32.3977)
		(1.2572 0.2151 32.3977)
		(1.4698 0.1872 32.3977)
		(1.6466 0.1633 32.3977)
		(1.7833 0.1441 32.3977)
		(1.8764 0.1298 32.3977)
	)
	BSpline 98 97
	(
		(-1.7561 -0.205 32.3977)
		(-1.6745 -0.1179 32.3977)
		(-1.5506 -0.0248 32.3977)
		(-1.3872 0.0687 32.3977)
		(-1.1879 0.1569 32.3977)
	)
	BSpline 99 98
	(
		(-1.097 -0.6389 32.3977)
		(-1.3102 -0.606 32.3977)
		(-1.4901 -0.5554 32.3977)
		(-1.6318 -0.4921 32.3977)
		(-1.7318 -0.4175 32.3977)
	)
	BSpline 96 99
	(
		(1.8788 0.109 32.3977)
		(1.7867 0.1139 32.3977)
		(1.6522 0.1144 32.3977)
		(1.4798 0.0989 32.3977)
		(1.2752 0.0566 32.3977)
		(1.0443 -0.0198 32.3977)
		(0.7929 -0.1293 32.3977)
		(0.526 -0.258 32.3977)
		(0.248 -0.386 32.3977)
		(-0.0355 -0.4966 32.3977)
		(-0.3187 -0.5784 32.3977)
		(-0.5947 -0.6289 32.3977)
	)
arc 104 103 (-3.121320343559643 2.121320343559643 32.3977)
arc 104 105 (-3.121320343559643 -2.121320343559643 32.3977)
	BSpline 109 108
	(
		(-0.6992 0.2425 36.2367)
		(-0.4385 0.2752 36.2367)
		(-0.1654 0.2845 36.2367)
		(0.113 0.2731 36.2367)
		(0.3893 0.2486 36.2367)
		(0.656 0.2173 36.2367)
		(0.9063 0.184 36.2367)
		(1.1338 0.1514 36.2367)
		(1.3328 0.1214 36.2367)
		(1.4983 0.0956 36.2367)
		(1.6261 0.0748 36.2367)
		(1.7133 0.0595 36.2367)
	)
	BSpline 110 109
	(
		(-1.7008 -0.1888 36.2367)
		(-1.6222 -0.1139 36.2367)
		(-1.5039 -0.0336 36.2367)
		(-1.3484 0.0469 36.2367)
		(-1.1595 0.1229 36.2367)
	)
	BSpline 111 110
	(
		(-1.1002 -0.5042 36.2367)
		(-1.2982 -0.4841 36.2367)
		(-1.4643 -0.4517 36.2367)
		(-1.5942 -0.4101 36.2367)
		(-1.6846 -0.3604 36.2367)
	)
	BSpline 108 111
	(
		(1.7152 0.039 36.2367)
		(1.6293 0.0412 36.2367)
		(1.5036 0.0395 36.2367)
		(1.3417 0.027 36.2367)
		(1.1485 -0.0039 36.2367)
		(0.9292 -0.0584 36.2367)
		(0.6894 -0.1358 36.2367)
		(0.4342 -0.2265 36.2367)
		(0.1688 -0.3168 36.2367)
		(-0.1012 -0.3954 36.2367)
		(-0.3696 -0.4542 36.2367)
		(-0.6298 -0.4918 36.2367)
	)
arc 116 115 (-3.121320343559643 2.121320343559643 36.2367)
arc 116 117 (-3.121320343559643 -2.121320343559643 36.2367)
	BSpline 121 120
	(
		(-0.7021 0.2072 40.371)
		(-0.4593 0.2328 40.371)
		(-0.2054 0.2364 40.371)
		(0.0531 0.2206 40.371)
		(0.3093 0.1925 40.371)
		(0.5565 0.1583 40.371)
		(0.7884 0.1226 40.371)
		(0.9992 0.0879 40.371)
		(1.1834 0.0563 40.371)
		(1.3367 0.0291 40.371)
		(1.4551 0.0073 40.371)
		(1.5358 -0.0086 40.371)
	)
	BSpline 122 121
	(
		(-1.6411 -0.1738 40.371)
		(-1.5666 -0.1058 40.371)
		(-1.4551 -0.0337 40.371)
		(-1.3091 0.038 40.371)
		(-1.1321 0.105 40.371)
	)
	BSpline 123 122
	(
		(-1.0893 -0.4753 40.371)
		(-1.2729 -0.4533 40.371)
		(-1.4266 -0.4205 40.371)
		(-1.5464 -0.3799 40.371)
		(-1.6294 -0.3327 40.371)
	)
	BSpline 120 123
	(
		(1.5372 -0.0277 40.371)
		(1.4574 -0.0241 40.371)
		(1.3406 -0.0235 40.371)
		(1.1899 -0.032 40.371)
		(1.0098 -0.0568 40.371)
		(0.805 -0.1029 40.371)
		(0.5807 -0.1696 40.371)
		(0.3417 -0.2482 40.371)
		(0.0933 -0.3263 40.371)
		(-0.159 -0.3935 40.371)
		(-0.4096 -0.4427 40.371)
		(-0.6521 -0.4724 40.371)
	)
arc 128 127 (-3.121320343559643 2.121320343559643 40.371)
arc 128 129 (-3.121320343559643 -2.121320343559643 40.371)
	BSpline 133 132
	(
		(-0.7059 0.1494 44.5053)
		(-0.4814 0.1739 44.5053)
		(-0.2471 0.1774 44.5053)
		(-0.0088 0.1637 44.5053)
		(0.2271 0.1378 44.5053)
		(0.4548 0.1039 44.5053)
		(0.6684 0.0663 44.5053)
		(0.8626 0.029 44.5053)
		(1.0324 -0.0048 44.5053)
		(1.1735 -0.0329 44.5053)
		(1.2825 -0.0546 44.5053)
		(1.3567 -0.0708 44.5053)
	)
	BSpline 134 133
	(
		(-1.5805 -0.1737 44.5053)
		(-1.5104 -0.1153 44.5053)
		(-1.4059 -0.0544 44.5053)
		(-1.2696 0.0056 44.5053)
		(-1.1048 0.0617 44.5053)
	)
	BSpline 135 134
	(
		(-1.0803 -0.3837 44.5053)
		(-1.2488 -0.3731 44.5053)
		(-1.3893 -0.3564 44.5053)
		(-1.4984 -0.3338 44.5053)
		(-1.5734 -0.3045 44.5053)
	)
	BSpline 132 135
	(
		(1.3571 -0.0766 44.5053)
		(1.2835 -0.0737 44.5053)
		(1.176 -0.0783 44.5053)
		(1.0372 -0.0927 44.5053)
		(0.8706 -0.1177 44.5053)
		(0.6805 -0.1533 44.5053)
		(0.4713 -0.1969 44.5053)
		(0.2481 -0.2452 44.5053)
		(0.0162 -0.2935 44.5053)
		(-0.2189 -0.3366 44.5053)
		(-0.4517 -0.368 44.5053)
		(-0.6767 -0.383 44.5053)
	)
arc 140 139 (-3.121320343559643 2.121320343559643 44.5053)
arc 140 141 (-3.121320343559643 -2.121320343559643 44.5053)
	BSpline 145 144
	(
		(-0.7141 0.1179 48.6397)
		(-0.5078 0.1376 48.6397)
		(-0.2927 0.1378 48.6397)
		(-0.0743 0.1222 48.6397)
		(0.1418 0.0954 48.6397)
		(0.3503 0.0613 48.6397)
		(0.5458 0.024 48.6397)
		(0.7235 -0.0128 48.6397)
		(0.8788 -0.0461 48.6397)
		(1.008 -0.0737 48.6397)
		(1.1077 -0.095 48.6397)
		(1.1756 -0.1108 48.6397)
	)
	BSpline 146 145
	(
		(-1.5209 -0.1669 48.6397)
		(-1.4557 -0.1142 48.6397)
		(-1.3591 -0.0598 48.6397)
		(-1.2332 -0.0066 48.6397)
		(-1.0812 0.0427 48.6397)
	)
	BSpline 147 146
	(
		(-1.0647 -0.3653 48.6397)
		(-1.2192 -0.3535 48.6397)
		(-1.3478 -0.3365 48.6397)
		(-1.4476 -0.3146 48.6397)
		(-1.516 -0.2868 48.6397)
	)
	BSpline 144 147
	(
		(1.1758 -0.1161 48.6397)
		(1.1084 -0.1124 48.6397)
		(1.0096 -0.1153 48.6397)
		(0.8821 -0.1268 48.6397)
		(0.729 -0.1476 48.6397)