// * * * * * * * * * * * * * * * * * * * * * * * * * * * * * * * * * * * * * //
FoamFile
{
	version     2.0;
	format      ascii;
	class       dictionary;
	object      blockMeshDict;
}
// * * * * * * * * * * * * * * * * * * * * * * * * * * * * * * * * * * * * * //
convertToMeters 1;

vertices
(
	(-1.4893   	1.0828   	3.7081)		//0
	(-1.5022   	-1.0655   	3.7042)		//1
	(1.6414   	-0.835   	3.6364)		//2
	(1.6559   	0.8049   	3.6286)		//3
	(-3.0   	3.0   	3.6693)		//4
	(-3.0   	-3.0   	3.6693)		//5
	(3.0   	-3.0   	3.6693)		//6
	(3.0   	3.0   	3.6693)		//7
	(-1.4806   	1.1477   	5.5245)		//8
	(-1.4941   	-1.0946   	5.5245)		//9
	(1.787   	-0.8541   	5.5245)		//10
	(1.8022   	0.8576   	5.5245)		//11
	(-3.0   	3.0   	5.5245)		//12
	(-3.0   	-3.0   	5.5245)		//13
	(3.0   	-3.0   	5.5245)		//14
	(3.0   	3.0   	5.5245)		//15
	(-1.5297   	1.2548   	8.1823)		//16
	(-1.5442   	-1.1652   	8.1823)		//17
	(1.9968   	-0.9056   	8.1823)		//18
	(2.0132   	0.9417   	8.1823)		//19
	(-3.0   	3.0   	8.1823)		//20
	(-3.0   	-3.0   	8.1823)		//21
	(3.0   	-3.0   	8.1823)		//22
	(3.0   	3.0   	8.1823)		//23
	(-1.6077   	0.3506   	11.726)		//24
	(-1.5083   	-0.9847   	11.726)		//25
	(2.2985   	0.5501   	11.726)		//26
	(2.2827   	0.6167   	11.726)		//27
	(-3.0   	3.0   	11.726)		//28
	(-3.0   	-3.0   	11.726)		//29
	(3.0   	-3.0   	11.726)		//30
	(3.0   	3.0   	11.726)		//31
	(-1.5777   	0.2475   	15.565)		//32
	(-1.5641   	-0.8847   	15.565)		//33
	(2.3808   	0.4801   	15.565)		//34
	(2.3717   	0.524   	15.565)		//35
	(-3.0   	3.0   	15.565)		//36
	(-3.0   	-3.0   	15.565)		//37
	(3.0   	-3.0   	15.565)		//38
	(3.0   	3.0   	15.565)		//39
	(-1.5352   	0.2361   	19.9947)		//40
	(-1.5533   	-0.8322   	19.9947)		//41
	(2.264   	0.3735   	19.9947)		//42
	(2.2566   	0.4148   	19.9947)		//43
	(-3.0   	3.0   	19.9947)		//44
	(-3.0   	-3.0   	19.9947)		//45
	(3.0   	-3.0   	19.9947)		//46
	(3.0   	3.0   	19.9947)		//47
	(-1.4792   	0.1308   	24.129)		//48
	(-1.5459   	-0.7041   	24.129)		//49
	(2.1259   	0.288   	24.129)		//50
	(2.1205   	0.3219   	24.129)		//51
	(-3.0   	3.0   	24.129)		//52
	(-3.0   	-3.0   	24.129)		//53
	(3.0   	-3.0   	24.129)		//54
	(3.0   	3.0   	24.129)		//55
	(-1.4335   	0.0786   	27.968)		//56
	(-1.527   	-0.6034   	27.968)		//57
	(1.9752   	0.2046   	27.968)		//58
	(1.9707   	0.2368   	27.968)		//59
	(-3.0   	3.0   	27.968)		//60
	(-3.0   	-3.0   	27.968)		//61
	(3.0   	-3.0   	27.968)		//62
	(3.0   	3.0   	27.968)		//63
	(-1.3872   	0.0687   	32.3977)		//64
	(-1.4901   	-0.5554   	32.3977)		//65
	(1.7867   	0.1139   	32.3977)		//66
	(1.7833   	0.1441   	32.3977)		//67
	(-3.0   	3.0   	32.3977)		//68
	(-3.0   	-3.0   	32.3977)		//69
	(3.0   	-3.0   	32.3977)		//70
	(3.0   	3.0   	32.3977)		//71
	(-1.3484   	0.0469   	36.2367)		//72
	(-1.4643   	-0.4517   	36.2367)		//73
	(1.6293   	0.0412   	36.2367)		//74
	(1.6261   	0.0748   	36.2367)		//75
	(-3.0   	3.0   	36.2367)		//76
	(-3.0   	-3.0   	36.2367)		//77
	(3.0   	-3.0   	36.2367)		//78
	(3.0   	3.0   	36.2367)		//79
	(-1.3091   	0.038   	40.371)		//80
	(-1.2729   	-0.4533   	40.371)		//81
	(1.4574   	-0.0241   	40.371)		//82
	(1.4551   	0.0073   	40.371)		//83
	(-3.0   	3.0   	40.371)		//84
	(-3.0   	-3.0   	40.371)		//85
	(3.0   	-3.0   	40.371)		//86
	(3.0   	3.0   	40.371)		//87
	(-1.2696   	0.0056   	44.5053)		//88
	(-1.2488   	-0.3731   	44.5053)		//89
	(1.2835   	-0.0737   	44.5053)		//90
	(1.2825   	-0.0546   	44.5053)		//91
	(-3.0   	3.0   	44.5053)		//92
	(-3.0   	-3.0   	44.5053)		//93
	(3.0   	-3.0   	44.5053)		//94
	(3.0   	3.0   	44.5053)		//95
	(-1.2332   	-0.0066   	48.6397)		//96
	(-1.2192   	-0.3535   	48.6397)		//97
	(1.1084   	-0.1124   	48.6397)		//98
	(1.1077   	-0.095   	48.6397)		//99
	(-3.0   	3.0   	48.6397)		//100
	(-3.0   	-3.0   	48.6397)		//101
	(3.0   	-3.0   	48.6397)		//102
	(3.0   	3.0   	48.6397)		//103
	(-1.1999   	-0.0186   	52.4787)		//104
	(-1.1911   	-0.3368   	52.4787)		//105
	(0.9452   	-0.1433   	52.4787)		//106
	(0.9447   	-0.1273   	52.4787)		//107
	(-3.0   	3.0   	52.4787)		//108
	(-3.0   	-3.0   	52.4787)		//109
	(3.0   	-3.0   	52.4787)		//110
	(3.0   	3.0   	52.4787)		//111
	(-1.1695   	-0.0305   	56.0224)		//112
	(-1.1649   	-0.322   	56.0224)		//113
	(0.7941   	-0.1684   	56.0224)		//114
	(0.7939   	-0.1537   	56.0224)		//115
	(-3.0   	3.0   	56.0224)		//116
	(-3.0   	-3.0   	56.0224)		//117
	(3.0   	-3.0   	56.0224)		//118
	(3.0   	3.0   	56.0224)		//119
	(-1.1344   	-0.0469   	58.9755)		//120
	(-1.1327   	-0.3066   	58.9755)		//121
	(0.6131   	-0.1858   	58.9755)		//122
	(0.613   	-0.1728   	58.9755)		//123
	(-3.0   	3.0   	58.9755)		//124
	(-3.0   	-3.0   	58.9755)		//125
	(3.0   	-3.0   	58.9755)		//126
	(3.0   	3.0   	58.9755)		//127
	(-1.0483   	-0.0953   	61.6333)		//128
	(-1.048   	-0.2735   	61.6333)		//129
	(0.1505   	-0.196   	61.6333)		//130
	(0.1505   	-0.1871   	61.6333)		//131
	(-3.0   	3.0   	61.6333)		//132
	(-3.0   	-3.0   	61.6333)		//133
	(3.0   	-3.0   	61.6333)		//134
	(3.0   	3.0   	61.6333)		//135
	(-0.5   	0.5   	65)		//136
	(-0.5   	-0.5   	65)		//137
	(0.5   	-0.5   	65)		//138
	(0.5   	0.5   	65)		//139
	(-3.0   	3.0   	65)		//140
	(-3.0   	-3.0   	65)		//141
	(3.0   	-3.0   	65)		//142
	(3.0   	3.0   	65)		//143
);

blocks
(
	hex (0 3 7 4 8 11 15 12) rotatingZone (15 10 10) simpleGrading (1 1 1)
	hex (3 2 6 7 11 10 14 15) rotatingZone (10 10 10) simpleGrading (1 1 1)
	hex (2 1 5 6 10 9 13 14) rotatingZone (15 10 10) simpleGrading (1 1 1)
	hex (1 0 4 5 9 8 12 13) rotatingZone (10 10 10) simpleGrading (1 1 1)
	hex (8 11 15 12 16 19 23 20) rotatingZone (15 10 10) simpleGrading (1 1 1)
	hex (11 10 14 15 19 18 22 23) rotatingZone (10 10 10) simpleGrading (1 1 1)
	hex (10 9 13 14 18 17 21 22) rotatingZone (15 10 10) simpleGrading (1 1 1)
	hex (9 8 12 13 17 16 20 21) rotatingZone (10 10 10) simpleGrading (1 1 1)
	hex (16 19 23 20 24 27 31 28) rotatingZone (15 10 10) simpleGrading (1 1 1)
	hex (19 18 22 23 27 26 30 31) rotatingZone (10 10 10) simpleGrading (1 1 1)
	hex (18 17 21 22 26 25 29 30) rotatingZone (15 10 10) simpleGrading (1 1 1)
	hex (17 16 20 21 25 24 28 29) rotatingZone (10 10 10) simpleGrading (1 1 1)
	hex (24 27 31 28 32 35 39 36) rotatingZone (15 10 10) simpleGrading (1 1 1)
	hex (27 26 30 31 35 34 38 39) rotatingZone (10 10 10) simpleGrading (1 1 1)
	hex (26 25 29 30 34 33 37 38) rotatingZone (15 10 10) simpleGrading (1 1 1)
	hex (25 24 28 29 33 32 36 37) rotatingZone (10 10 10) simpleGrading (1 1 1)
	hex (32 35 39 36 40 43 47 44) rotatingZone (15 10 10) simpleGrading (1 1 1)
	hex (35 34 38 39 43 42 46 47) rotatingZone (10 10 10) simpleGrading (1 1 1)
	hex (34 33 37 38 42 41 45 46) rotatingZone (15 10 10) simpleGrading (1 1 1)
	hex (33 32 36 37 41 40 44 45) rotatingZone (10 10 10) simpleGrading (1 1 1)
	hex (40 43 47 44 48 51 55 52) rotatingZone (15 10 10) simpleGrading (1 1 1)
	hex (43 42 46 47 51 50 54 55) rotatingZone (10 10 10) simpleGrading (1 1 1)
	hex (42 41 45 46 50 49 53 54) rotatingZone (15 10 10) simpleGrading (1 1 1)
	hex (41 40 44 45 49 48 52 53) rotatingZone (10 10 10) simpleGrading (1 1 1)
	hex (48 51 55 52 56 59 63 60) rotatingZone (15 10 10) simpleGrading (1 1 1)
	hex (51 50 54 55 59 58 62 63) rotatingZone (10 10 10) simpleGrading (1 1 1)
	hex (50 49 53 54 58 57 61 62) rotatingZone (15 10 10) simpleGrading (1 1 1)
	hex (49 48 52 53 57 56 60 61) rotatingZone (10 10 10) simpleGrading (1 1 1)
	hex (56 59 63 60 64 67 71 68) rotatingZone (15 10 10) simpleGrading (1 1 1)
	hex (59 58 62 63 67 66 70 71) rotatingZone (10 10 10) simpleGrading (1 1 1)
	hex (58 57 61 62 66 65 69 70) rotatingZone (15 10 10) simpleGrading (1 1 1)
	hex (57 56 60 61 65 64 68 69) rotatingZone (10 10 10) simpleGrading (1 1 1)
	hex (64 67 71 68 72 75 79 76) rotatingZone (15 10 10) simpleGrading (1 1 1)
	hex (67 66 70 71 75 74 78 79) rotatingZone (10 10 10) simpleGrading (1 1 1)
	hex (66 65 69 70 74 73 77 78) rotatingZone (15 10 10) simpleGrading (1 1 1)
	hex (65 64 68 69 73 72 76 77) rotatingZone (10 10 10) simpleGrading (1 1 1)
	hex (72 75 79 76 80 83 87 84) rotatingZone (15 10 10) simpleGrading (1 1 1)
	hex (75 74 78 79 83 82 86 87) rotatingZone (10 10 10) simpleGrading (1 1 1)
	hex (74 73 77 78 82 81 85 86) rotatingZone (15 10 10) simpleGrading (1 1 1)
	hex (73 72 76 77 81 80 84 85) rotatingZone (10 10 10) simpleGrading (1 1 1)
	hex (80 83 87 84 88 91 95 92) rotatingZone (15 10 10) simpleGrading (1 1 1)
	hex (83 82 86 87 91 90 94 95) rotatingZone (10 10 10) simpleGrading (1 1 1)
	hex (82 81 85 86 90 89 93 94) rotatingZone (15 10 10) simpleGrading (1 1 1)
	hex (81 80 84 85 89 88 92 93) rotatingZone (10 10 10) simpleGrading (1 1 1)
	hex (88 91 95 92 96 99 103 100) rotatingZone (15 10 10) simpleGrading (1 1 1)
	hex (91 90 94 95 99 98 102 103) rotatingZone (10 10 10) simpleGrading (1 1 1)
	hex (90 89 93 94 98 97 101 102) rotatingZone (15 10 10) simpleGrading (1 1 1)
	hex (89 88 92 93 97 96 100 101) rotatingZone (10 10 10) simpleGrading (1 1 1)
	hex (96 99 103 100 104 107 111 108) rotatingZone (15 10 10) simpleGrading (1 1 1)
	hex (99 98 102 103 107 106 110 111) rotatingZone (10 10 10) simpleGrading (1 1 1)
	hex (98 97 101 102 106 105 109 110) rotatingZone (15 10 10) simpleGrading (1 1 1)
	hex (97 96 100 101 105 104 108 109) rotatingZone (10 10 10) simpleGrading (1 1 1)
	hex (104 107 111 108 112 115 119 116) rotatingZone (15 10 10) simpleGrading (1 1 1)
	hex (107 106 110 111 115 114 118 119) rotatingZone (10 10 10) simpleGrading (1 1 1)
	hex (106 105 109 110 114 113 117 118) rotatingZone (15 10 10) simpleGrading (1 1 1)
	hex (105 104 108 109 113 112 116 117) rotatingZone (10 10 10) simpleGrading (1 1 1)
	hex (112 115 119 116 120 123 127 124) rotatingZone (15 10 10) simpleGrading (1 1 1)
	hex (115 114 118 119 123 122 126 127) rotatingZone (10 10 10) simpleGrading (1 1 1)
	hex (114 113 117 118 122 121 125 126) rotatingZone (15 10 10) simpleGrading (1 1 1)
	hex (113 112 116 117 121 120 124 125) rotatingZone (10 10 10) simpleGrading (1 1 1)
	hex (120 123 127 124 128 131 135 132) rotatingZone (15 10 10) simpleGrading (1 1 1)
	hex (123 122 126 127 131 130 134 135) rotatingZone (10 10 10) simpleGrading (1 1 1)
	hex (122 121 125 126 130 129 133 134) rotatingZone (15 10 10) simpleGrading (1 1 1)
	hex (121 120 124 125 129 128 132 133) rotatingZone (10 10 10) simpleGrading (1 1 1)
	hex (128 131 135 132 136 139 143 140) rotatingZone (15 10 10) simpleGrading (1 1 1)
	hex (131 130 134 135 139 138 142 143) rotatingZone (10 10 10) simpleGrading (1 1 1)
	hex (130 129 133 134 138 137 141 142) rotatingZone (15 10 10) simpleGrading (1 1 1)
	hex (129 128 132 133 137 136 140 141) rotatingZone (10 10 10) simpleGrading (1 1 1)
	hex (128 129 130 131 136 137 138 139) rotatingZone (10 15 10) simpleGrading (1 1 1)
);

edges
(
	BSpline 0 3
	(
		(-1.3005 1.3037 3.7654)
		(-1.0795 1.4918 3.8324)
		(-0.8319 1.6428 3.9075)
		(-0.5636 1.753 3.9445)
		(-0.2815 1.8198 3.9723)
		(0.0077 1.8414 3.9992)
		(0.2968 1.8173 3.9708)
		(0.5786 1.7482 3.943)
		(0.8464 1.6353 3.9031)
		(1.0933 1.4819 3.8282)
		(1.3138 1.29 3.7613)
		(1.5022 1.0655 3.7042)
	)
	BSpline 3 2
	(
		(1.7926 0.424 3.5555)
		(1.8411 0.0223 3.5297)
		(1.8204 -0.2795 3.5407)
		(1.7525 -0.5647 3.577)
	)
	BSpline 2 1
	(
		(1.4893 -1.0828 3.7081)
		(1.3005 -1.3037 3.7654)
		(1.0795 -1.4918 3.8324)
		(0.8319 -1.6428 3.9075)
		(0.5636 -1.753 3.9445)
		(0.2815 -1.8198 3.9723)
		(-0.0077 -1.8414 4.0008)
		(-0.2968 -1.8173 3.9708)
		(-0.5786 -1.7482 3.943)
		(-0.8463 -1.6353 3.9031)
		(-1.0933 -1.4819 3.8282)
		(-1.3138 -1.29 3.7613)
	)
	BSpline 1 0
	(
		(-1.6559 -0.8049 3.6286)
		(-1.7926 -0.424 3.5555)
		(-1.841 -0.0223 3.5297)
		(-1.8204 0.2795 3.5407)
		(-1.7525 0.5647 3.577)
		(-1.6414 0.835 3.6364)
	)
	BSpline 8 11
	(
		(-1.2836 1.3782 5.5245)
		(-1.0529 1.5745 5.5245)
		(-0.7944 1.7322 5.5245)
		(-0.5145 1.8472 5.5245)
		(-0.22 1.9168 5.5245)
		(0.0818 1.9394 5.5245)
		(0.3836 1.9143 5.5245)
		(0.6777 1.8422 5.5245)
		(0.9572 1.7243 5.5245)
		(1.215 1.5641 5.5245)
		(1.4451 1.3639 5.5245)
		(1.6418 1.1295 5.5245)
	)
	BSpline 11 10
	(
		(1.9449 0.46 5.5245)
		(1.9954 0.0407 5.5245)
		(1.9738 -0.2743 5.5245)
		(1.903 -0.5719 5.5245)
	)
	BSpline 10 9
	(
		(1.6283 -1.1128 5.5245)
		(1.4312 -1.3433 5.5245)
		(1.2005 -1.5396 5.5245)
		(0.9421 -1.6973 5.5245)
		(0.6621 -1.8123 5.5245)
		(0.3676 -1.8819 5.5245)
		(0.0658 -1.9045 5.5245)
		(-0.236 -1.8794 5.5245)
		(-0.5301 -1.8073 5.5245)
		(-0.8096 -1.6894 5.5245)
		(-1.0674 -1.5292 5.5245)
		(-1.2975 -1.329 5.5245)
	)
	BSpline 9 8
	(
		(-1.6546 -0.8227 5.5245)
		(-1.7973 -0.4251 5.5245)
		(-1.8478 -0.0058 5.5245)
		(-1.8262 0.3092 5.5245)
		(-1.7554 0.6069 5.5245)
		(-1.6394 0.889 5.5245)
	)
	BSpline 16 19
	(
		(-1.317 1.5036 8.1823)
		(-1.0681 1.7154 8.1823)
		(-0.7891 1.8856 8.1823)
		(-0.487 2.0097 8.1823)
		(-0.1691 2.0849 8.1823)
		(0.1566 2.1093 8.1823)
		(0.4822 2.0821 8.1823)
		(0.7997 2.0043 8.1823)
		(1.1013 1.8771 8.1823)
		(1.3795 1.7042 8.1823)
		(1.6279 1.4881 8.1823)
		(1.8401 1.2352 8.1823)
	)
	BSpline 19 18
	(
		(2.1672 0.5126 8.1823)
		(2.2218 0.0601 8.1823)
		(2.1985 -0.2799 8.1823)
		(2.1221 -0.6011 8.1823)
	)
	BSpline 18 17
	(
		(1.8255 -1.1848 8.1823)
		(1.6129 -1.4336 8.1823)
		(1.3639 -1.6454 8.1823)
		(1.085 -1.8156 8.1823)
		(0.7828 -1.9397 8.1823)
		(0.465 -2.0149 8.1823)
		(0.1393 -2.0393 8.1823)
		(-0.1864 -2.0121 8.1823)
		(-0.5038 -1.9343 8.1823)
		(-0.8054 -1.8071 8.1823)
		(-1.0836 -1.6343 8.1823)
		(-1.332 -1.4181 8.1823)
	)
	BSpline 17 16
	(
		(-1.7174 -0.8717 8.1823)
		(-1.8714 -0.4427 8.1823)
		(-1.9259 0.0099 8.1823)
		(-1.9026 0.3499 8.1823)
		(-1.8262 0.6711 8.1823)
		(-1.701 0.9756 8.1823)
	)
	BSpline 24 27
	(
		(-1.3828 0.5009 11.726)
		(-1.1132 0.6206 11.726)
		(-0.8048 0.7044 11.726)
		(-0.4669 0.7568 11.726)
		(-0.109 0.7814 11.726)
		(0.2593 0.7817 11.726)
		(0.6273 0.764 11.726)
		(0.984 0.7368 11.726)
		(1.3194 0.7062 11.726)
		(1.6243 0.6768 11.726)
		(1.8908 0.6515 11.726)
		(2.1119 0.6318 11.726)
	)
	BSpline 27 26
	(
		(2.3992 0.6052 11.726)
		(2.4622 0.5824 11.726)
		(2.409 0.5637 11.726)
	)
	BSpline 26 25
	(
		(2.141 0.5088 11.726)
		(1.943 0.4308 11.726)
		(1.7116 0.308 11.726)
		(1.4539 0.1377 11.726)
		(1.1755 -0.0727 11.726)
		(0.8811 -0.3092 11.726)
		(0.5752 -0.5539 11.726)
		(0.2609 -0.7821 11.726)
		(-0.0584 -0.9702 11.726)
		(-0.3779 -1.1005 11.726)
		(-0.6923 -1.1586 11.726)
		(-0.9928 -1.1481 11.726)
		(-1.2678 -1.0863 11.726)
	)
	BSpline 25 24
	(
		(-1.7067 -0.8529 11.726)
		(-1.8567 -0.7002 11.726)
		(-1.9697 -0.4659 11.726)
		(-1.9738 -0.2051 11.726)
		(-1.9062 -0.0096 11.726)
		(-1.7834 0.1782 11.726)
	)
	BSpline 32 35
	(
		(-1.3418 0.3836 15.565)
		(-1.0622 0.4925 15.565)
		(-0.7447 0.5658 15.565)
		(-0.3992 0.6116 15.565)
		(-0.0355 0.6358 15.565)
		(0.3366 0.6412 15.565)
		(0.7071 0.6324 15.565)
		(1.0657 0.6148 15.565)
		(1.4027 0.5933 15.565)
		(1.7092 0.5714 15.565)
		(1.9771 0.5519 15.565)
		(2.1997 0.5362 15.565)
	)
	BSpline 35 34
	(
		(2.489 0.5147 15.565)
		(2.551 0.497 15.565)
		(2.4948 0.4866 15.565)
	)
	BSpline 34 33
	(
		(2.2182 0.4467 15.565)
		(2.0129 0.378 15.565)
		(1.7717 0.2677 15.565)
		(1.5012 0.1149 15.565)
		(1.2071 -0.0724 15.565)
		(0.8954 -0.2828 15.565)
		(0.5724 -0.5047 15.565)
		(0.2436 -0.7209 15.565)
		(-0.0864 -0.9091 15.565)
		(-0.4142 -1.0412 15.565)
		(-0.7362 -1.0926 15.565)
		(-1.0433 -1.0674 15.565)
		(-1.3226 -0.9925 15.565)
	)
	BSpline 33 32
	(
		(-1.7597 -0.7574 15.565)
		(-1.9026 -0.6236 15.565)
		(-1.9993 -0.4374 15.565)
		(-1.9832 -0.2323 15.565)
		(-1.9014 -0.069 15.565)
		(-1.7655 0.094 15.565)
	)
	BSpline 40 43
	(
		(-1.3055 0.3602 19.9947)
		(-1.0347 0.4576 19.9947)
		(-0.7285 0.5201 19.9947)
		(-0.3961 0.556 19.9947)
		(-0.047 0.5711 19.9947)
		(0.3097 0.5686 19.9947)
		(0.6644 0.5527 19.9947)
		(1.0076 0.5286 19.9947)
		(1.3299 0.5012 19.9947)
		(1.623 0.4741 19.9947)
		(1.8792 0.4499 19.9947)
		(2.0921 0.4302 19.9947)
	)
	BSpline 43 42
	(
		(2.3688 0.4032 19.9947)
		(2.4278 0.3851 19.9947)
		(2.3735 0.3767 19.9947)
	)
	BSpline 42 41
	(
		(2.1073 0.3456 19.9947)
		(1.9087 0.2851 19.9947)
		(1.6746 0.1858 19.9947)
		(1.4113 0.0469 19.9947)
		(1.1245 -0.1241 19.9947)
		(0.8201 -0.3165 19.9947)
		(0.5047 -0.52 19.9947)
		(0.184 -0.7186 19.9947)
		(-0.137 -0.8912 19.9947)
		(-0.4545 -1.0104 19.9947)
		(-0.7644 -1.0519 19.9947)
		(-1.0584 -1.0199 19.9947)
		(-1.3244 -0.9412 19.9947)
	)
	BSpline 41 40
	(
		(-1.7375 -0.7065 19.9947)
		(-1.8709 -0.5767 19.9947)
		(-1.9582 -0.4001 19.9947)
		(-1.9368 -0.2085 19.9947)
		(-1.8539 -0.0565 19.9947)
		(-1.7193 0.0946 19.9947)
	)
	BSpline 48 51
	(
		(-1.2577 0.2423 24.129)
		(-0.9986 0.3341 24.129)
		(-0.7072 0.3968 24.129)
		(-0.3914 0.4339 24.129)
		(-0.06 0.4503 24.129)
		(0.2781 0.451 24.129)
		(0.6138 0.4402 24.129)
		(0.9383 0.4219 24.129)
		(1.2431 0.3998 24.129)
		(1.5204 0.3769 24.129)
		(1.7629 0.3554 24.129)
		(1.9646 0.337 24.129)
	)
	BSpline 51 50
	(
		(2.2269 0.3101 24.129)
		(2.2824 0.2935 24.129)
		(2.2305 0.2875 24.129)
	)
	BSpline 50 49
	(
		(1.9749 0.2719 24.129)
		(1.7827 0.2301 24.129)
		(1.5555 0.1549 24.129)
		(1.2996 0.0429 24.129)
		(1.021 -0.1009 24.129)
		(0.7254 -0.2653 24.129)
		(0.4188 -0.4385 24.129)
		(0.1073 -0.607 24.129)
		(-0.2036 -0.7534 24.129)
		(-0.5092 -0.8543 24.129)
		(-0.8051 -0.8887 24.129)
		(-1.0832 -0.8607 24.129)
		(-1.3329 -0.7939 24.129)
	)
	BSpline 49 48
	(
		(-1.7154 -0.603 24.129)
		(-1.8361 -0.5008 24.129)
		(-1.9098 -0.3696 24.129)
		(-1.8785 -0.2329 24.129)
		(-1.7926 -0.115 24.129)
		(-1.6587 0.009 24.129)
	)
	BSpline 56 59
	(
		(-1.2216 0.1785 27.968)
		(-0.9756 0.2669 27.968)
		(-0.7007 0.3361 27.968)
		(-0.4029 0.3782 27.968)
		(-0.0898 0.3939 27.968)
		(0.2297 0.3912 27.968)
		(0.5471 0.3758 27.968)
		(0.8539 0.3527 27.968)
		(1.1419 0.3264 27.968)
		(1.4038 0.2998 27.968)
		(1.6329 0.2751 27.968)
		(1.8235 0.2539 27.968)
	)
	BSpline 59 58
	(
		(2.0712 0.2238 27.968)
		(2.1233 0.2078 27.968)
		(2.0742 0.2016 27.968)
	)
	BSpline 58 57
	(
		(1.8307 0.2016 27.968)
		(1.6461 0.1799 27.968)
		(1.4275 0.1283 27.968)
		(1.1816 0.0392 27.968)
		(0.9144 -0.0859 27.968)
		(0.631 -0.2321 27.968)
		(0.3359 -0.3783 27.968)
		(0.0344 -0.5064 27.968)
		(-0.2674 -0.6037 27.968)
		(-0.5623 -0.6664 27.968)
		(-0.8429 -0.6936 27.968)
		(-1.1019 -0.6881 27.968)
		(-1.3321 -0.6557 27.968)
	)
	BSpline 57 56
	(
		(-1.6812 -0.5365 27.968)
		(-1.7908 -0.457 27.968)
		(-1.8567 -0.3411 27.968)
		(-1.8226 -0.2269 27.968)
		(-1.7372 -0.1305 27.968)
		(-1.6067 -0.0266 27.968)
	)
	BSpline 64 67
	(
		(-1.1879 0.1569 32.3977)
		(-0.957 0.234 32.3977)
		(-0.6999 0.2932 32.3977)
		(-0.422 0.3266 32.3977)
		(-0.1304 0.335 32.3977)
		(0.1668 0.3257 32.3977)
		(0.4618 0.3045 32.3977)
		(0.7467 0.2763 32.3977)
		(1.0141 0.2455 32.3977)
		(1.2572 0.2151 32.3977)
		(1.4698 0.1872 32.3977)
		(1.6466 0.1633 32.3977)
	)
	BSpline 67 66
	(
		(1.8764 0.1298 32.3977)
		(1.9246 0.1138 32.3977)
		(1.8788 0.109 32.3977)
	)
	BSpline 66 65
	(
		(1.6522 0.1144 32.3977)
		(1.4798 0.0989 32.3977)
		(1.2752 0.0566 32.3977)
		(1.0443 -0.0198 32.3977)
		(0.7929 -0.1293 32.3977)
		(0.526 -0.258 32.3977)
		(0.248 -0.386 32.3977)
		(-0.0355 -0.4966 32.3977)
		(-0.3187 -0.5784 32.3977)
		(-0.5947 -0.6289 32.3977)
		(-0.8564 -0.6481 32.3977)
		(-1.097 -0.6389 32.3977)
		(-1.3102 -0.606 32.3977)
	)
	BSpline 65 64
	(
		(-1.6318 -0.4921 32.3977)
		(-1.7318 -0.4175 32.3977)
		(-1.7905 -0.3097 32.3977)
		(-1.7561 -0.205 32.3977)
		(-1.6745 -0.1179 32.3977)
		(-1.5506 -0.0248 32.3977)
	)
	BSpline 72 75
	(
		(-1.1595 0.1229 36.2367)
		(-0.9414 0.1898 36.2367)
		(-0.6992 0.2425 36.2367)
		(-0.4385 0.2752 36.2367)
		(-0.1654 0.2845 36.2367)
		(0.113 0.2731 36.2367)
		(0.3893 0.2486 36.2367)
		(0.656 0.2173 36.2367)
		(0.9063 0.184 36.2367)
		(1.1338 0.1514 36.2367)
		(1.3328 0.1214 36.2367)
		(1.4983 0.0956 36.2367)
	)
	BSpline 75 74
	(
		(1.7133 0.0595 36.2367)
		(1.7582 0.0436 36.2367)
		(1.7152 0.039 36.2367)
	)
	BSpline 74 73
	(
		(1.5036 0.0395 36.2367)
		(1.3417 0.027 36.2367)
		(1.1485 -0.0039 36.2367)
		(0.9292 -0.0584 36.2367)
		(0.6894 -0.1358 36.2367)
		(0.4342 -0.2265 36.2367)
		(0.1688 -0.3168 36.2367)
		(-0.1012 -0.3954 36.2367)
		(-0.3696 -0.4542 36.2367)
		(-0.6298 -0.4918 36.2367)
		(-0.8754 -0.5077 36.2367)
		(-1.1002 -0.5042 36.2367)
		(-1.2982 -0.4841 36.2367)
	)
	BSpline 73 72
	(
		(-1.5942 -0.4101 36.2367)
		(-1.6846 -0.3604 36.2367)
		(-1.735 -0.2863 36.2367)
		(-1.7008 -0.1888 36.2367)
		(-1.6222 -0.1139 36.2367)
		(-1.5039 -0.0336 36.2367)
	)
	BSpline 80 83
	(
		(-1.1321 0.105 40.371)
		(-0.9282 0.1629 40.371)
		(-0.7021 0.2072 40.371)
		(-0.4593 0.2328 40.371)
		(-0.2054 0.2364 40.371)
		(0.0531 0.2206 40.371)
		(0.3093 0.1925 40.371)
		(0.5565 0.1583 40.371)
		(0.7884 0.1226 40.371)
		(0.9992 0.0879 40.371)
		(1.1834 0.0563 40.371)
		(1.3367 0.0291 40.371)
	)
	BSpline 83 82
	(
		(1.5358 -0.0086 40.371)
		(1.5772 -0.0242 40.371)
		(1.5372 -0.0277 40.371)
	)
	BSpline 82 81
	(
		(1.3406 -0.0235 40.371)
		(1.1899 -0.032 40.371)
		(1.0098 -0.0568 40.371)
		(0.805 -0.1029 40.371)
		(0.5807 -0.1696 40.371)
		(0.3417 -0.2482 40.371)
		(0.0933 -0.3263 40.371)
		(-0.159 -0.3935 40.371)
		(-0.4096 -0.4427 40.371)
		(-0.6521 -0.4724 40.371)
		(-0.8806 -0.4826 40.371)
		(-1.0893 -0.4753 40.371)
	)
	BSpline 81 80
	(
		(-1.4266 -0.4205 40.371)
		(-1.5464 -0.3799 40.371)
		(-1.6294 -0.3327 40.371)
		(-1.6747 -0.2637 40.371)
		(-1.6411 -0.1738 40.371)
		(-1.5666 -0.1058 40.371)
		(-1.4551 -0.0337 40.371)
	)
	BSpline 88 91
	(
		(-1.1048 0.0617 44.5053)
		(-0.9153 0.1107 44.5053)
		(-0.7059 0.1494 44.5053)
		(-0.4814 0.1739 44.5053)
		(-0.2471 0.1774 44.5053)
		(-0.0088 0.1637 44.5053)
		(0.2271 0.1378 44.5053)
		(0.4548 0.1039 44.5053)
		(0.6684 0.0663 44.5053)
		(0.8626 0.029 44.5053)
		(1.0324 -0.0048 44.5053)
		(1.1735 -0.0329 44.5053)
	)
	BSpline 91 90
	(
		(1.3567 -0.0708 44.5053)
		(1.3944 -0.0802 44.5053)
		(1.3571 -0.0766 44.5053)
	)
	BSpline 90 89
	(
		(1.176 -0.0783 44.5053)
		(1.0372 -0.0927 44.5053)
		(0.8706 -0.1177 44.5053)
		(0.6805 -0.1533 44.5053)
		(0.4713 -0.1969 44.5053)
		(0.2481 -0.2452 44.5053)
		(0.0162 -0.2935 44.5053)
		(-0.2189 -0.3366 44.5053)
		(-0.4517 -0.368 44.5053)
		(-0.6767 -0.383 44.5053)
		(-0.888 -0.3875 44.5053)
		(-1.0803 -0.3837 44.5053)
	)
	BSpline 89 88
	(
		(-1.3893 -0.3564 44.5053)
		(-1.4984 -0.3338 44.5053)
		(-1.5734 -0.3045 44.5053)
		(-1.6138 -0.2451 44.5053)
		(-1.5805 -0.1737 44.5053)
		(-1.5104 -0.1153 44.5053)
		(-1.4059 -0.0544 44.5053)
	)
	BSpline 96 99
	(
		(-1.0812 0.0427 48.6397)
		(-0.9068 0.0852 48.6397)
		(-0.7141 0.1179 48.6397)
		(-0.5078 0.1376 48.6397)
		(-0.2927 0.1378 48.6397)
		(-0.0743 0.1222 48.6397)
		(0.1418 0.0954 48.6397)
		(0.3503 0.0613 48.6397)
		(0.5458 0.024 48.6397)
		(0.7235 -0.0128 48.6397)
		(0.8788 -0.0461 48.6397)
		(1.008 -0.0737 48.6397)
	)
	BSpline 99 98
	(
		(1.1756 -0.1108 48.6397)
		(1.21 -0.1198 48.6397)
		(1.1758 -0.1161 48.6397)
	)
	BSpline 98 97
	(
		(1.0096 -0.1153 48.6397)
		(0.8821 -0.1268 48.6397)
		(0.729 -0.1476 48.6397)
		(0.554 -0.1778 48.6397)
		(0.3615 -0.2149 48.6397)
		(0.1561 -0.2561 48.6397)
		(-0.0573 -0.2972 48.6397)
		(-0.2736 -0.3335 48.6397)
		(-0.4877 -0.3591 48.6397)
		(-0.6943 -0.3699 48.6397)
		(-0.8883 -0.3712 48.6397)
		(-1.0647 -0.3653 48.6397)
	)
	BSpline 97 96
	(
		(-1.3478 -0.3365 48.6397)
		(-1.4476 -0.3146 48.6397)
		(-1.516 -0.2868 48.6397)
		(-1.5523 -0.2318 48.6397)
		(-1.5209 -0.1669 48.6397)
		(-1.4557 -0.1142 48.6397)
		(-1.3591 -0.0598 48.6397)
	)
	BSpline 104 107
	(
		(-1.06 0.0247 52.4787)
		(-0.8996 0.0616 52.4787)
		(-0.7226 0.0894 52.4787)
		(-0.5333 0.1049 52.4787)
		(-0.3361 0.1025 52.4787)
		(-0.1362 0.0857 52.4787)
		(0.0617 0.0586 52.4787)
		(0.2524 0.0249 52.4787)
		(0.4311 -0.0116 52.4787)
		(0.5936 -0.0474 52.4787)
		(0.7355 -0.0798 52.4787)
		(0.8536 -0.1066 52.4787)
	)
	BSpline 107 106
	(
		(1.0068 -0.1426 52.4787)
		(1.0382 -0.1513 52.4787)
		(1.0069 -0.1474 52.4787)
	)
	BSpline 106 105
	(
		(0.8546 -0.1448 52.4787)
		(0.7376 -0.1538 52.4787)
		(0.597 -0.1711 52.4787)
		(0.4363 -0.1967 52.4787)
		(0.2594 -0.2284 52.4787)
		(0.0706 -0.2638 52.4787)
		(-0.1255 -0.2989 52.4787)
		(-0.3242 -0.3296 52.4787)
		(-0.5207 -0.3506 52.4787)
		(-0.7103 -0.358 52.4787)
		(-0.8881 -0.3569 52.4787)
		(-1.0497 -0.3495 52.4787)
	)
	BSpline 105 104
	(
		(-1.3089 -0.3197 52.4787)
		(-1.4 -0.2984 52.4787)
		(-1.4624 -0.2722 52.4787)
		(-1.495 -0.2213 52.4787)
		(-1.4655 -0.1622 52.4787)
		(-1.4051 -0.1147 52.4787)
		(-1.3159 -0.066 52.4787)
	)
	BSpline 112 115
	(
		(-1.0408 0.0077 56.0224)
		(-0.8935 0.0397 56.0224)
		(-0.731 0.0632 56.0224)
		(-0.5574 0.0753 56.0224)
		(-0.3769 0.071 56.0224)
		(-0.1939 0.0534 56.0224)
		(-0.013 0.0263 56.0224)
		(0.1613 -0.0067 56.0224)
		(0.3247 -0.0421 56.0224)
		(0.4731 -0.0767 56.0224)
		(0.6028 -0.1079 56.0224)
		(0.7106 -0.1338 56.0224)
	)
	BSpline 115 114
	(
		(0.8506 -0.1685 56.0224)
		(0.8793 -0.1768 56.0224)
		(0.8507 -0.1729 56.0224)
	)
	BSpline 114 113
	(
		(0.7112 -0.1688 56.0224)
		(0.6039 -0.1757 56.0224)
		(0.4749 -0.19 56.0224)
		(0.3274 -0.2116 56.0224)
		(0.165 -0.2388 56.0224)
		(-0.0084 -0.2691 56.0224)
		(-0.1884 -0.299 56.0224)
		(-0.3707 -0.325 56.0224)
		(-0.551 -0.342 56.0224)
		(-0.7247 -0.3467 56.0224)
		(-0.8875 -0.3438 56.0224)
		(-1.0355 -0.3351 56.0224)
	)
	BSpline 113 112
	(
		(-1.2726 -0.305 56.0224)
		(-1.3559 -0.2845 56.0224)
		(-1.4127 -0.2598 56.0224)
		(-1.4421 -0.2129 56.0224)
		(-1.4143 -0.159 56.0224)
		(-1.3585 -0.1162 56.0224)
		(-1.2762 -0.0725 56.0224)
	)
	BSpline 120 123
	(
		(-1.0195 -0.014 58.9755)
		(-0.888 0.0133 58.9755)
		(-0.7432 0.0329 58.9755)
		(-0.5885 0.0423 58.9755)
		(-0.4277 0.0369 58.9755)
		(-0.2649 0.0197 58.9755)
		(-0.104 -0.0058 58.9755)
		(0.051 -0.0366 58.9755)
		(0.1962 -0.0695 58.9755)
		(0.328 -0.1015 58.9755)
		(0.4433 -0.1303 58.9755)
		(0.5391 -0.1543 58.9755)
	)
	BSpline 123 122
	(
		(0.6634 -0.1863 58.9755)
		(0.6889 -0.194 58.9755)
		(0.6634 -0.1902 58.9755)
	)
	BSpline 122 121
	(
		(0.5393 -0.1855 58.9755)
		(0.4436 -0.1908 58.9755)
		(0.3286 -0.2024 58.9755)
		(0.1971 -0.2205 58.9755)
		(0.0523 -0.2434 58.9755)
		(-0.1023 -0.2689 58.9755)
		(-0.2629 -0.2941 58.9755)
		(-0.4255 -0.3157 58.9755)
		(-0.5861 -0.3294 58.9755)
		(-0.7408 -0.3322 58.9755)
		(-0.8859 -0.3283 58.9755)
		(-1.0176 -0.3194 58.9755)
	)
	BSpline 121 120
	(
		(-1.2285 -0.2906 58.9755)
		(-1.3025 -0.2716 58.9755)
		(-1.3529 -0.2491 58.9755)
		(-1.3786 -0.2071 58.9755)
		(-1.3535 -0.1594 58.9755)
		(-1.3034 -0.1217 58.9755)
		(-1.2298 -0.0835 58.9755)
	)
	BSpline 128 131
	(
		(-0.9694 -0.073 61.6333)
		(-0.8791 -0.0547 61.6333)
		(-0.7796 -0.0417 61.6333)
		(-0.6734 -0.0358 61.6333)
		(-0.5631 -0.0399 61.6333)
		(-0.4514 -0.0522 61.6333)
		(-0.3411 -0.0703 61.6333)
		(-0.2348 -0.0919 61.6333)
		(-0.1353 -0.1149 61.6333)
		(-0.0449 -0.1373 61.6333)
		(0.0341 -0.1574 61.6333)
		(0.0998 -0.1742 61.6333)
	)
	BSpline 131 130
	(
		(0.185 -0.1965 61.6333)
		(0.2025 -0.2019 61.6333)
		(0.185 -0.1992 61.6333)
	)
	BSpline 130 129
	(
		(0.0998 -0.1956 61.6333)
		(0.0342 -0.1989 61.6333)
		(-0.0448 -0.2066 61.6333)
		(-0.1351 -0.2186 61.6333)
		(-0.2346 -0.2338 61.6333)
		(-0.3407 -0.2508 61.6333)
		(-0.451 -0.2677 61.6333)
		(-0.5627 -0.282 61.6333)
		(-0.673 -0.2909 61.6333)
		(-0.7792 -0.2923 61.6333)
		(-0.8787 -0.2892 61.6333)
		(-0.969 -0.2826 61.6333)
	)
	BSpline 129 128
	(
		(-1.1137 -0.2622 61.6333)
		(-1.1644 -0.249 61.6333)
		(-1.1989 -0.2334 61.6333)
		(-1.2165 -0.2045 61.6333)
		(-1.1991 -0.1718 61.6333)
		(-1.1646 -0.1461 61.6333)
		(-1.1139 -0.1201 61.6333)
	)
);

boundary
(
	blade
	{
		type wall;
		faces
		(
			(0 3 11 8)
			(3 2 10 11)
			(2 1 9 10)
			(1 0 8 9)
			(8 11 19 16)
			(11 10 18 19)
			(10 9 17 18)
			(9 8 16 17)
			(16 19 27 24)
			(19 18 26 27)
			(18 17 25 26)
			(17 16 24 25)
			(24 27 35 32)
			(27 26 34 35)
			(26 25 33 34)
			(25 24 32 33)
			(32 35 43 40)
			(35 34 42 43)
			(34 33 41 42)
			(33 32 40 41)
			(40 43 51 48)
			(43 42 50 51)
			(42 41 49 50)
			(41 40 48 49)
			(48 51 59 56)
			(51 50 58 59)
			(50 49 57 58)
			(49 48 56 57)
			(56 59 67 64)
			(59 58 66 67)
			(58 57 65 66)
			(57 56 64 65)
			(64 67 75 72)
			(67 66 74 75)
			(66 65 73 74)
			(65 64 72 73)
			(72 75 83 80)
			(75 74 82 83)
			(74 73 81 82)
			(73 72 80 81)
			(80 83 91 88)
			(83 82 90 91)
			(82 81 89 90)
			(81 80 88 89)
			(88 91 99 96)
			(91 90 98 99)
			(90 89 97 98)
			(89 88 96 97)
			(96 99 107 104)
			(99 98 106 107)
			(98 97 105 106)
			(97 96 104 105)
			(104 107 115 112)
			(107 106 114 115)
			(106 105 113 114)
			(105 104 112 113)
			(112 115 123 120)
			(115 114 122 123)
			(114 113 121 122)
			(113 112 120 121)
			(120 123 131 128)
			(123 122 130 131)
			(122 121 129 130)
			(121 120 128 129)
			(131 130 129 128)
		);
	}
	inlet
	{
		type wall;
		faces
		(
			(4 5 13 12)
			(12 13 21 20)
			(20 21 29 28)
			(28 29 37 36)
			(36 37 45 44)
			(44 45 53 52)
			(52 53 61 60)
			(60 61 69 68)
			(68 69 77 76)
			(76 77 85 84)
			(84 85 93 92)
			(92 93 101 100)
			(100 101 109 108)
			(108 109 117 116)
			(116 117 125 124)
			(124 125 133 132)
			(132 133 141 140)
		);
	}
	outlet
	{
		type wall;
		faces
		(
			(6 7 15 14)
			(14 15 23 22)
			(22 23 31 30)
			(30 31 39 38)
			(38 39 47 46)
			(46 47 55 54)
			(54 55 63 62)
			(62 63 71 70)
			(70 71 79 78)
			(78 79 87 86)
			(86 87 95 94)
			(94 95 103 102)
			(102 103 111 110)
			(110 111 119 118)
			(118 119 127 126)
			(126 127 135 134)
			(134 135 143 142)
		);
	}
	wall
	{
		type wall;
		faces
		(
			(7 4 12 15)
			(5 6 14 13)
			(15 12 20 23)
			(13 14 22 21)
			(23 20 28 31)
			(21 22 30 29)
			(31 28 36 39)
			(29 30 38 37)
			(39 36 44 47)
			(37 38 46 45)
			(47 44 52 55)
			(45 46 54 53)
			(55 52 60 63)
			(53 54 62 61)
			(63 60 68 71)
			(61 62 70 69)
			(71 68 76 79)
			(69 70 78 77)
			(79 76 84 87)
			(77 78 86 85)
			(87 84 92 95)
			(85 86 94 93)
			(95 92 100 103)
			(93 94 102 101)
			(103 100 108 111)
			(101 102 110 109)
			(111 108 116 119)
			(109 110 118 117)
			(119 116 124 127)
			(117 118 126 125)
			(127 124 132 135)
			(125 126 134 133)
			(135 132 140 143)
			(133 134 142 141)