// * * * * * * * * * * * * * * * * * * * * * * * * * * * * * * * * * * * * * //
FoamFile
{
	version     2.0;
	format      ascii;
	class       dictionary;
	object      blockMeshDict;
}
// * * * * * * * * * * * * * * * * * * * * * * * * * * * * * * * * * * * * * //
convertToMeters 1;

vertices
(
	(0.4816   	0.1754   	1.251)		//0
	(-0.0193   	0.07   	1.251)		//1
	(-0.1417   	0.0003   	1.251)		//2
	(-0.2069   	-0.0752   	1.251)		//3
	(-0.1462   	-0.0873   	1.251)		//4
	(-0.0196   	-0.0806   	1.251)		//5
	(1   	0   	1.251)		//6
	(1   	0.5   	1.251)		//7
	(0.75   	0.5   	1.251)		//8
	(0   	0.5   	1.251)		//9
	(-0.5   	0.5   	1.251)		//10
	(-0.5   	-0.15   	1.251)		//11
	(-0.5   	-0.5   	1.251)		//12
	(0   	-0.5   	1.251)		//13
	(0.75   	-0.5   	1.251)		//14
	(1   	-0.5   	1.251)		//15
	(0.4797   	0.1109   	1.5845)		//16
	(-0.0568   	0.0519   	1.5845)		//17
	(-0.1347   	0.0163   	1.5845)		//18
	(-0.2056   	-0.0475   	1.5845)		//19
	(-0.1491   	-0.0658   	1.5845)		//20
	(-0.0277   	-0.074   	1.5845)		//21
	(1   	0   	1.5845)		//22
	(1   	0.5   	1.5845)		//23
	(0.75   	0.5   	1.5845)		//24
	(0   	0.5   	1.5845)		//25
	(-0.5   	0.5   	1.5845)		//26
	(-0.5   	-0.15   	1.5845)		//27
	(-0.5   	-0.5   	1.5845)		//28
	(0   	-0.5   	1.5845)		//29
	(0.75   	-0.5   	1.5845)		//30
	(1   	-0.5   	1.5845)		//31
);

blocks
(
	hex (0 6 7 8 16 22 23 24) rotatingZone (10 10 10) simpleGrading (1 1 1)
	hex (1 0 8 9 17 16 24 25) rotatingZone (10 10 10) simpleGrading (1 1 1)
	hex (2 1 9 10 18 17 25 26) rotatingZone (10 10 10) simpleGrading (1 1 1)
	hex (3 2 10 11 19 18 26 27) rotatingZone (10 10 10) simpleGrading (1 1 1)
	hex (4 3 11 12 20 19 27 28) rotatingZone (10 10 10) simpleGrading (1 1 1)
	hex (5 4 12 13 21 20 28 29) rotatingZone (10 10 10) simpleGrading (1 1 1)
	hex (0 5 13 14 16 21 29 30) rotatingZone (10 10 10) simpleGrading (1 1 1)
	hex (6 0 14 15 22 16 30 31) rotatingZone (10 10 10) simpleGrading (1 1 1)
);

edges
(
	BSpline 1 0
	(
		(0.0312 0.0916 1.251)
		(0.0852 0.1099 1.251)
		(0.142 0.1223 1.251)
		(0.1994 0.1313 1.251)
		(0.2546 0.1399 1.251)
		(0.3062 0.1482 1.251)
		(0.353 0.156 1.251)
		(0.3939 0.1628 1.251)
		(0.4281 0.1679 1.251)
		(0.4547 0.1713 1.251)
		(0.4727 0.1738 1.251)
	)
	BSpline 2 1
	(
		(-0.1068 0.0236 1.251)
		(-0.0656 0.0471 1.251)
	)
	BSpline 3 2
	(
		(-0.203 -0.0593 1.251)
		(-0.1904 -0.0418 1.251)
		(-0.1698 -0.0217 1.251)
	)
	BSpline 4 3
	(
		(-0.1748 -0.0851 1.251)
		(-0.1951 -0.0815 1.251)
	)
	BSpline 5 4
	(
		(-0.0673 -0.0859 1.251)
		(-0.1099 -0.088 1.251)
	)
	BSpline 0 5
	(
		(0.473 0.1725 1.251)
		(0.4562 0.1663 1.251)
		(0.4322 0.1558 1.251)
		(0.4016 0.1407 1.251)
		(0.3653 0.1209 1.251)
		(0.3247 0.0962 1.251)
		(0.2805 0.0673 1.251)
		(0.2338 0.0353 1.251)
		(0.1854 0.0017 1.251)
		(0.1355 -0.0299 1.251)
		(0.0838 -0.0543 1.251)
		(0.0314 -0.0707 1.251)
	)
	BSpline 17 16
	(
		(-0.01 0.0683 1.5845)
		(0.0407 0.0829 1.5845)
		(0.0942 0.094 1.5845)
		(0.1498 0.0993 1.5845)
		(0.2055 0.1011 1.5845)
		(0.2591 0.1029 1.5845)
		(0.3093 0.1048 1.5845)
		(0.3548 0.1069 1.5845)
		(0.3945 0.1087 1.5845)
		(0.4277 0.1096 1.5845)
		(0.4535 0.1099 1.5845)
		(0.4709 0.1103 1.5845)
	)
	BSpline 18 17
	(
		(-0.0987 0.0344 1.5845)
	)
	BSpline 19 18
	(
		(-0.2 -0.033 1.5845)
		(-0.186 -0.018 1.5845)
		(-0.164 -0.0013 1.5845)
	)
	BSpline 20 19
	(
		(-0.1761 -0.0604 1.5845)
		(-0.195 -0.0548 1.5845)
	)
	BSpline 21 20
	(
		(-0.0738 -0.0735 1.5845)
		(-0.1146 -0.0706 1.5845)
	)
	BSpline 16 21
	(
		(0.4711 0.1094 1.5845)
		(0.4544 0.1055 1.5845)
		(0.4303 0.0984 1.5845)
		(0.3994 0.0877 1.5845)
		(0.3626 0.0732 1.5845)
		(0.321 0.0544 1.5845)
		(0.2755 0.0321 1.5845)
		(0.2273 0.007 1.5845)
		(0.1772 -0.0194 1.5845)
		(0.1261 -0.0437 1.5845)
		(0.0739 -0.0609 1.5845)
		(0.0221 -0.0705 1.5845)
	)
);

boundary
(
);
// ************************************************************************* //