// * * * * * * * * * * * * * * * * * * * * * * * * * * * * * * * * * * * * * //
FoamFile
{
	version     2.0;
	format      ascii;
	class       dictionary;
	object      blockMeshDict;
}
// * * * * * * * * * * * * * * * * * * * * * * * * * * * * * * * * * * * * * //
convertToMeters 1;

vertices
(
	(0.1063   	0.0238   	0.5004)		//0
	(0.0571   	0.0928   	0.5004)		//1
	(-0.0086   	0.1086   	0.5004)		//2
	(-0.0571   	0.0928   	0.5004)		//3
	(-0.1063   	0.0238   	0.5004)		//4
	(-0.109   	-0.0   	0.5004)		//5
	(-0.0571   	-0.0928   	0.5004)		//6
	(0.0086   	-0.1086   	0.5004)		//7
	(0.0571   	-0.0928   	0.5004)		//8
	(0.109   	-0.0   	0.5004)		//9
	(0.0957   	0.0214   	0.5004)		//10
	(0.0514   	0.0835   	0.5004)		//11
	(-0.0077   	0.0978   	0.5004)		//12
	(-0.0514   	0.0835   	0.5004)		//13
	(-0.0957   	0.0214   	0.5004)		//14
	(-0.0981   	-0.0   	0.5004)		//15
	(-0.0514   	-0.0835   	0.5004)		//16
	(0.0077   	-0.0978   	0.5004)		//17
	(0.0514   	-0.0835   	0.5004)		//18
	(0.0981   	-0.0   	0.5004)		//19
	(0.4633   	0.1732   	1.251)		//20
	(0.3062   	0.1482   	1.251)		//21
	(0.142   	0.1223   	1.251)		//22
	(-0.0193   	0.07   	1.251)		//23
	(-0.2059   	-0.0712   	1.251)		//24
	(-0.204   	-0.0767   	1.251)		//25
	(-0.0196   	-0.0806   	1.251)		//26
	(0.1355   	-0.0299   	1.251)		//27
	(0.2805   	0.0673   	1.251)		//28
	(0.4633   	0.1685   	1.251)		//29
	(0.4577   	0.1704   	1.251)		//30
	(0.2934   	0.1403   	1.251)		//31
	(0.1406   	0.1144   	1.251)		//32
	(-0.0476   	0.0462   	1.251)		//33
	(-0.1938   	-0.067   	1.251)		//34
	(-0.192   	-0.072   	1.251)		//35
	(-0.0542   	-0.0752   	1.251)		//36
	(0.1348   	-0.0226   	1.251)		//37
	(0.31   	0.0935   	1.251)		//38
	(0.4577   	0.1683   	1.251)		//39
	(0.4589   	0.1112   	1.5845)		//40
	(0.3093   	0.1073   	1.5845)		//41
	(0.1498   	0.0993   	1.5845)		//42
	(-0.0568   	0.0519   	1.5845)		//43
	(-0.2042   	-0.0439   	1.5845)		//44
	(-0.2029   	-0.0493   	1.5845)		//45
	(-0.0277   	-0.074   	1.5845)		//46
	(0.1261   	-0.0437   	1.5845)		//47
	(0.2755   	0.0321   	1.5845)		//48
	(0.459   	0.1067   	1.5845)		//49
	(0.4421   	0.1086   	1.5845)		//50
	(0.295   	0.1   	1.5845)		//51
	(0.1475   	0.0912   	1.5845)		//52
	(-0.0398   	0.0483   	1.5845)		//53
	(-0.1859   	-0.0411   	1.5845)		//54
	(-0.1847   	-0.046   	1.5845)		//55
	(-0.0136   	-0.065   	1.5845)		//56
	(0.1261   	-0.0374   	1.5845)		//57
	(0.3055   	0.0525   	1.5845)		//58
	(0.4421   	0.1045   	1.5845)		//59
	(0.4437   	0.0709   	1.9181)		//60
	(0.3014   	0.0757   	1.9181)		//61
	(0.1497   	0.0828   	1.9181)		//62
	(-0.0499   	0.0535   	1.9181)		//63
	(-0.197   	-0.0261   	1.9181)		//64
	(-0.1962   	-0.0314   	1.9181)		//65
	(-0.0319   	-0.068   	1.9181)		//66
	(0.1163   	-0.051   	1.9181)		//67
	(0.2638   	0.0095   	1.9181)		//68
	(0.4437   	0.0666   	1.9181)		//69
	(0.4171   	0.0679   	1.9181)		//70
	(0.2867   	0.0708   	1.9181)		//71
	(0.0991   	0.0745   	1.9181)		//72
	(-0.0398   	0.0485   	1.9181)		//73
	(-0.1806   	-0.0236   	1.9181)		//74
	(-0.1799   	-0.0284   	1.9181)		//75
	(-0.0235   	-0.0609   	1.9181)		//76
	(0.1169   	-0.0452   	1.9181)		//77
	(0.2516   	0.0105   	1.9181)		//78
	(0.417   	0.064   	1.9181)		//79
	(0.4233   	0.0458   	2.2517)		//80
	(0.2901   	0.0589   	2.2517)		//81
	(0.0959   	0.073   	2.2517)		//82
	(-0.0447   	0.0534   	2.2517)		//83
	(-0.1884   	-0.0147   	2.2517)		//84
	(-0.188   	-0.0198   	2.2517)		//85
	(-0.0338   	-0.063   	2.2517)		//86
	(0.1078   	-0.0544   	2.2517)		//87
	(0.251   	-0.0044   	2.2517)		//88
	(0.4233   	0.0416   	2.2517)		//89
	(0.409   	0.045   	2.2517)		//90
	(0.2778   	0.0553   	2.2517)		//91
	(0.0977   	0.066   	2.2517)		//92
	(-0.0361   	0.0481   	2.2517)		//93
	(-0.1732   	-0.0136   	2.2517)		//94
	(-0.1728   	-0.0181   	2.2517)		//95
	(-0.0262   	-0.0567   	2.2517)		//96
	(0.1085   	-0.0486   	2.2517)		//97
	(0.2817   	0.0106   	2.2517)		//98
	(0.409   	0.0414   	2.2517)		//99
	(0.4012   	0.0274   	2.5853)		//100
	(0.2764   	0.0439   	2.5853)		//101
	(0.0931   	0.0658   	2.5853)		//102
	(-0.0405   	0.052   	2.5853)		//103
	(-0.1788   	-0.0076   	2.5853)		//104
	(-0.1785   	-0.0124   	2.5853)		//105
	(-0.0341   	-0.0585   	2.5853)		//106
	(0.1002   	-0.0551   	2.5853)		//107
	(0.2373   	-0.0126   	2.5853)		//108
	(0.4012   	0.0232   	2.5853)		//109
	(0.3785   	0.0277   	2.5853)		//110
	(0.2595   	0.0415   	2.5853)		//111
	(0.0943   	0.0595   	2.5853)		//112
	(-0.0333   	0.0477   	2.5853)		//113
	(-0.1646   	-0.0054   	2.5853)		//114
	(-0.1643   	-0.0097   	2.5853)		//115
	(-0.0275   	-0.0518   	2.5853)		//116
	(0.1006   	-0.0493   	2.5853)		//117
	(0.2245   	-0.0099   	2.5853)		//118
	(0.3785   	0.0241   	2.5853)		//119
	(0.378   	0.0181   	2.9189)		//120
	(0.2216   	0.0421   	2.9189)		//121
	(0.0894   	0.06   	2.9189)		//122
	(-0.037   	0.05   	2.9189)		//123
	(-0.1689   	-0.0031   	2.9189)		//124
	(-0.1687   	-0.0076   	2.9189)		//125
	(-0.0335   	-0.0544   	2.9189)		//126
	(0.0932   	-0.0542   	2.9189)		//127
	(0.2236   	-0.0173   	2.9189)		//128
	(0.378   	0.0136   	2.9189)		//129
	(0.3642   	0.0183   	2.9189)		//130
	(0.2459   	0.0351   	2.9189)		//131
	(0.09   	0.0541   	2.9189)		//132
	(-0.0294   	0.045   	2.9189)		//133
	(-0.1528   	-0.0028   	2.9189)		//134
	(-0.1526   	-0.0068   	2.9189)		//135
	(-0.0262   	-0.0489   	2.9189)		//136
	(0.0935   	-0.0488   	2.9189)		//137
	(0.2472   	-0.0039   	2.9189)		//138
	(0.3642   	0.0146   	2.9189)		//139
	(0.3548   	0.01   	3.2525)		//140
	(0.2091   	0.0354   	3.2525)		//141
	(0.085   	0.055   	3.2525)		//142
	(-0.034   	0.0476   	3.2525)		//143
	(-0.1589   	-0.0003   	3.2525)		//144
	(-0.1588   	-0.0045   	3.2525)		//145
	(-0.0323   	-0.0506   	3.2525)		//146
	(0.0869   	-0.0525   	3.2525)		//147
	(0.2101   	-0.0198   	3.2525)		//148
	(0.3548   	0.0059   	3.2525)		//149
	(0.3434   	0.0098   	3.2525)		//150
	(0.2326   	0.0267   	3.2525)		//151
	(0.0849   	0.0495   	3.2525)		//152
	(-0.0279   	0.0431   	3.2525)		//153
	(-0.1446   	0.0002   	3.2525)		//154
	(-0.1446   	-0.0036   	3.2525)		//155
	(-0.0263   	-0.0453   	3.2525)		//156
	(0.0866   	-0.0472   	3.2525)		//157
	(0.2332   	-0.0087   	3.2525)		//158
	(0.3434   	0.0075   	3.2525)		//159
	(0.3312   	0.0062   	3.5861)		//160
	(0.1963   	0.0309   	3.5861)		//161
	(0.0802   	0.0506   	3.5861)		//162
	(-0.0314   	0.045   	3.5861)		//163
	(-0.1488   	0.0015   	3.5861)		//164
	(-0.1488   	-0.0025   	3.5861)		//165
	(-0.0308   	-0.0471   	3.5861)		//166
	(0.0808   	-0.0501   	3.5861)		//167
	(0.1965   	-0.0208   	3.5861)		//168
	(0.3312   	0.0021   	3.5861)		//169
	(0.3186   	0.0057   	3.5861)		//170
	(0.1908   	0.0281   	3.5861)		//171
	(0.08   	0.0455   	3.5861)		//172
	(-0.0276   	0.0403   	3.5861)		//173
	(-0.1378   	0.0012   	3.5861)		//174
	(-0.1378   	-0.0024   	3.5861)		//175
	(-0.0271   	-0.0425   	3.5861)		//176
	(0.0805   	-0.0452   	3.5861)		//177
	(0.1911   	-0.0185   	3.5861)		//178
	(0.3186   	0.0032   	3.5861)		//179
	(0.3076   	0.0029   	3.9197)		//180
	(0.1834   	0.0271   	3.9197)		//181
	(0.0753   	0.0465   	3.9197)		//182
	(-0.0289   	0.0422   	3.9197)		//183
	(-0.1389   	0.0027   	3.9197)		//184
	(-0.1389   	-0.001   	3.9197)		//185
	(-0.0292   	-0.0437   	3.9197)		//186
	(0.075   	-0.0475   	3.9197)		//187
	(0.1832   	-0.0212   	3.9197)		//188
	(0.3076   	-0.0011   	3.9197)		//189
	(0.2959   	0.0029   	3.9197)		//190
	(0.1809   	0.0248   	3.9197)		//191
	(0.0751   	0.042   	3.9197)		//192
	(-0.0267   	0.0383   	3.9197)		//193
	(-0.1297   	0.0028   	3.9197)		//194
	(-0.1297   	-0.0005   	3.9197)		//195
	(-0.0269   	-0.039   	3.9197)		//196
	(0.0748   	-0.0426   	3.9197)		//197
	(0.1808   	-0.0187   	3.9197)		//198
	(0.2959   	0.0001   	3.9197)		//199
	(0.284   	0.0005   	4.2533)		//200
	(0.1704   	0.0237   	4.2533)		//201
	(0.0703   	0.0426   	4.2533)		//202
	(-0.0264   	0.0394   	4.2533)		//203
	(-0.1288   	0.0036   	4.2533)		//204
	(-0.1289   	0.0001   	4.2533)		//205
	(-0.0274   	-0.0403   	4.2533)		//206
	(0.0692   	-0.0446   	4.2533)		//207
	(0.1699   	-0.0211   	4.2533)		//208
	(0.284   	-0.0036   	4.2533)		//209
	(0.2697   	0.0006   	4.2533)		//210
	(0.1654   	0.0214   	4.2533)		//211
	(0.069   	0.0384   	4.2533)		//212
	(-0.0244   	0.0357   	4.2533)		//213
	(-0.1196   	0.0036   	4.2533)		//214
	(-0.1196   	0.0005   	4.2533)		//215
	(-0.0252   	-0.036   	4.2533)		//216
	(0.068   	-0.0401   	4.2533)		//217
	(0.1649   	-0.0189   	4.2533)		//218
	(0.2697   	-0.003   	4.2533)		//219
	(0.2604   	-0.0011   	4.5868)		//220
	(0.1573   	0.0209   	4.5868)		//221
	(0.0651   	0.0387   	4.5868)		//222
	(-0.0241   	0.0365   	4.5868)		//223
	(-0.1187   	0.0043   	4.5868)		//224
	(-0.1188   	0.0011   	4.5868)		//225
	(-0.0256   	-0.0369   	4.5868)		//226
	(0.0634   	-0.0417   	4.5868)		//227
	(0.1564   	-0.0207   	4.5868)		//228
	(0.2604   	-0.0052   	4.5868)		//229
	(0.2555   	-0.0022   	4.5868)		//230
	(0.1535   	0.0187   	4.5868)		//231
	(0.0631   	0.0351   	4.5868)		//232
	(-0.0242   	0.0336   	4.5868)		//233
	(-0.1125   	0.0048   	4.5868)		//234
	(-0.1125   	0.0019   	4.5868)		//235
	(-0.0255   	-0.0326   	4.5868)		//236
	(0.0616   	-0.0372   	4.5868)		//237
	(0.1527   	-0.0187   	4.5868)		//238
	(0.2555   	-0.0044   	4.5868)		//239
	(0.2368   	-0.0027   	4.9204)		//240
	(0.1441   	0.0176   	4.9204)		//241
	(0.0599   	0.035   	4.9204)		//242
	(-0.0218   	0.0336   	4.9204)		//243
	(-0.1087   	0.0048   	4.9204)		//244
	(-0.1088   	0.0019   	4.9204)		//245
	(-0.0237   	-0.0336   	4.9204)		//246
	(0.0578   	-0.0386   	4.9204)		//247
	(0.1431   	-0.0203   	4.9204)		//248
	(0.2368   	-0.0067   	4.9204)		//249
	(0.2318   	-0.0036   	4.9204)		//250
	(0.1403   	0.0153   	4.9204)		//251
	(0.0595   	0.031   	4.9204)		//252
	(-0.0187   	0.0298   	4.9204)		//253
	(-0.099   	0.0039   	4.9204)		//254
	(-0.0991   	0.0013   	4.9204)		//255
	(-0.0204   	-0.0307   	4.9204)		//256
	(0.0576   	-0.0353   	4.9204)		//257
	(0.1394   	-0.0189   	4.9204)		//258
	(0.2317   	-0.0056   	4.9204)		//259
	(0.2291   	-0.0031   	5.0289)		//260
	(0.1398   	0.017   	5.0289)		//261
	(0.0581   	0.0339   	5.0289)		//262
	(-0.0212   	0.0327   	5.0289)		//263
	(-0.1055   	0.0049   	5.0289)		//264
	(-0.1056   	0.002   	5.0289)		//265
	(-0.0231   	-0.0325   	5.0289)		//266
	(0.0559   	-0.0379   	5.0289)		//267
	(0.1387   	-0.0201   	5.0289)		//268
	(0.2291   	-0.0072   	5.0289)		//269
	(0.2247   	-0.0041   	5.0289)		//270
	(0.1357   	0.0153   	5.0289)		//271
	(0.0564   	0.0308   	5.0289)		//272
	(-0.0205   	0.0301   	5.0289)		//273
	(-0.0992   	0.0052   	5.0289)		//274
	(-0.0993   	0.0027   	5.0289)		//275
	(-0.0223   	-0.0286   	5.0289)		//276
	(0.0544   	-0.0338   	5.0289)		//277
	(0.1347   	-0.0181   	5.0289)		//278
	(0.2247   	-0.0062   	5.0289)		//279
	(0.0917   	0.1036   	1.251)		//280
	(0.1018   	0.1058   	1.251)		//281
	(0.1018   	-0.0272   	1.251)		//282
	(0.0917   	-0.032   	1.251)		//283
	(0.0917   	0.0853   	1.5845)		//284
	(0.1018   	0.0871   	1.5845)		//285
	(0.1018   	-0.0345   	1.5845)		//286
	(0.0917   	-0.038   	1.5845)		//287
	(-0.1063   	0.0238   	-0.5004)		//288
	(-0.0571   	0.0928   	-0.5004)		//289
	(0.0086   	0.1086   	-0.5004)		//290
	(0.0571   	0.0928   	-0.5004)		//291
	(0.1063   	0.0238   	-0.5004)		//292
	(0.109   	-0.0   	-0.5004)		//293
	(0.0571   	-0.0928   	-0.5004)		//294
	(-0.0086   	-0.1086   	-0.5004)		//295
	(-0.0571   	-0.0928   	-0.5004)		//296
	(-0.109   	-0.0   	-0.5004)		//297
	(-0.0957   	0.0214   	-0.5004)		//298
	(-0.0514   	0.0835   	-0.5004)		//299
	(0.0077   	0.0978   	-0.5004)		//300
	(0.0514   	0.0835   	-0.5004)		//301
	(0.0957   	0.0214   	-0.5004)		//302
	(0.0981   	-0.0   	-0.5004)		//303
	(0.0514   	-0.0835   	-0.5004)		//304
	(-0.0077   	-0.0978   	-0.5004)		//305
	(-0.0514   	-0.0835   	-0.5004)		//306
	(-0.0981   	-0.0   	-0.5004)		//307
	(-0.4633   	0.1732   	-1.251)		//308
	(-0.3062   	0.1482   	-1.251)		//309
	(-0.142   	0.1223   	-1.251)		//310
	(0.0193   	0.07   	-1.251)		//311
	(0.2059   	-0.0712   	-1.251)		//312
	(0.204   	-0.0767   	-1.251)		//313
	(0.0196   	-0.0806   	-1.251)		//314
	(-0.1355   	-0.0299   	-1.251)		//315
	(-0.2805   	0.0673   	-1.251)		//316
	(-0.4633   	0.1685   	-1.251)		//317
	(-0.4577   	0.1704   	-1.251)		//318
	(-0.2934   	0.1403   	-1.251)		//319
	(-0.1406   	0.1144   	-1.251)		//320
	(0.0476   	0.0462   	-1.251)		//321
	(0.1938   	-0.067   	-1.251)		//322
	(0.192   	-0.072   	-1.251)		//323
	(0.0542   	-0.0752   	-1.251)		//324
	(-0.1348   	-0.0226   	-1.251)		//325
	(-0.31   	0.0935   	-1.251)		//326
	(-0.4577   	0.1683   	-1.251)		//327
	(-0.4589   	0.1112   	-1.5845)		//328
	(-0.3093   	0.1073   	-1.5845)		//329
	(-0.1498   	0.0993   	-1.5845)		//330
	(0.0568   	0.0519   	-1.5845)		//331
	(0.2042   	-0.0439   	-1.5845)		//332
	(0.2029   	-0.0493   	-1.5845)		//333
	(0.0277   	-0.074   	-1.5845)		//334
	(-0.1261   	-0.0437   	-1.5845)		//335
	(-0.2755   	0.0321   	-1.5845)		//336
	(-0.459   	0.1067   	-1.5845)		//337
	(-0.4421   	0.1086   	-1.5845)		//338
	(-0.295   	0.1   	-1.5845)		//339
	(-0.1475   	0.0912   	-1.5845)		//340
	(0.0398   	0.0483   	-1.5845)		//341
	(0.1859   	-0.0411   	-1.5845)		//342
	(0.1847   	-0.046   	-1.5845)		//343
	(0.0136   	-0.065   	-1.5845)		//344
	(-0.1261   	-0.0374   	-1.5845)		//345
	(-0.3055   	0.0525   	-1.5845)		//346
	(-0.4421   	0.1045   	-1.5845)		//347
	(-0.4437   	0.0709   	-1.9181)		//348
	(-0.3014   	0.0757   	-1.9181)		//349
	(-0.1497   	0.0828   	-1.9181)		//350
	(0.0499   	0.0535   	-1.9181)		//351
	(0.197   	-0.0261   	-1.9181)		//352
	(0.1962   	-0.0314   	-1.9181)		//353
	(0.0319   	-0.068   	-1.9181)		//354
	(-0.1163   	-0.051   	-1.9181)		//355
	(-0.2638   	0.0095   	-1.9181)		//356
	(-0.4437   	0.0666   	-1.9181)		//357
	(-0.4171   	0.0679   	-1.9181)		//358
	(-0.2867   	0.0708   	-1.9181)		//359
	(-0.0991   	0.0745   	-1.9181)		//360
	(0.0398   	0.0485   	-1.9181)		//361
	(0.1806   	-0.0236   	-1.9181)		//362
	(0.1799   	-0.0284   	-1.9181)		//363
	(0.0235   	-0.0609   	-1.9181)		//364
	(-0.1169   	-0.0452   	-1.9181)		//365
	(-0.2516   	0.0105   	-1.9181)		//366
	(-0.417   	0.064   	-1.9181)		//367
	(-0.4233   	0.0458   	-2.2517)		//368
	(-0.2901   	0.0589   	-2.2517)		//369
	(-0.0959   	0.073   	-2.2517)		//370
	(0.0447   	0.0534   	-2.2517)		//371
	(0.1884   	-0.0147   	-2.2517)		//372
	(0.188   	-0.0198   	-2.2517)		//373
	(0.0338   	-0.063   	-2.2517)		//374
	(-0.1078   	-0.0544   	-2.2517)		//375
	(-0.251   	-0.0044   	-2.2517)		//376
	(-0.4233   	0.0416   	-2.2517)		//377
	(-0.409   	0.045   	-2.2517)		//378
	(-0.2778   	0.0553   	-2.2517)		//379
	(-0.0977   	0.066   	-2.2517)		//380
	(0.0361   	0.0481   	-2.2517)		//381
	(0.1732   	-0.0136   	-2.2517)		//382
	(0.1728   	-0.0181   	-2.2517)		//383
	(0.0262   	-0.0567   	-2.2517)		//384
	(-0.1085   	-0.0486   	-2.2517)		//385
	(-0.2817   	0.0106   	-2.2517)		//386
	(-0.409   	0.0414   	-2.2517)		//387
	(-0.4012   	0.0274   	-2.5853)		//388
	(-0.2764   	0.0439   	-2.5853)		//389
	(-0.0931   	0.0658   	-2.5853)		//390
	(0.0405   	0.052   	-2.5853)		//391
	(0.1788   	-0.0076   	-2.5853)		//392
	(0.1785   	-0.0124   	-2.5853)		//393
	(0.0341   	-0.0585   	-2.5853)		//394
	(-0.1002   	-0.0551   	-2.5853)		//395
	(-0.2373   	-0.0126   	-2.5853)		//396
	(-0.4012   	0.0232   	-2.5853)		//397
	(-0.3785   	0.0277   	-2.5853)		//398
	(-0.2595   	0.0415   	-2.5853)		//399
	(-0.0943   	0.0595   	-2.5853)		//400
	(0.0333   	0.0477   	-2.5853)		//401
	(0.1646   	-0.0054   	-2.5853)		//402
	(0.1643   	-0.0097   	-2.5853)		//403
	(0.0275   	-0.0518   	-2.5853)		//404
	(-0.1006   	-0.0493   	-2.5853)		//405
	(-0.2245   	-0.0099   	-2.5853)		//406
	(-0.3785   	0.0241   	-2.5853)		//407
	(-0.378   	0.0181   	-2.9189)		//408
	(-0.2216   	0.0421   	-2.9189)		//409
	(-0.0894   	0.06   	-2.9189)		//410
	(0.037   	0.05   	-2.9189)		//411
	(0.1689   	-0.0031   	-2.9189)		//412
	(0.1687   	-0.0076   	-2.9189)		//413
	(0.0335   	-0.0544   	-2.9189)		//414
	(-0.0932   	-0.0542   	-2.9189)		//415
	(-0.2236   	-0.0173   	-2.9189)		//416
	(-0.378   	0.0136   	-2.9189)		//417
	(-0.3642   	0.0183   	-2.9189)		//418
	(-0.2459   	0.0351   	-2.9189)		//419
	(-0.09   	0.0541   	-2.9189)		//420
	(0.0294   	0.045   	-2.9189)		//421
	(0.1528   	-0.0028   	-2.9189)		//422
	(0.1526   	-0.0068   	-2.9189)		//423
	(0.0262   	-0.0489   	-2.9189)		//424
	(-0.0935   	-0.0488   	-2.9189)		//425
	(-0.2472   	-0.0039   	-2.9189)		//426
	(-0.3642   	0.0146   	-2.9189)		//427
	(-0.3548   	0.01   	-3.2525)		//428
	(-0.2091   	0.0354   	-3.2525)		//429
	(-0.085   	0.055   	-3.2525)		//430
	(0.034   	0.0476   	-3.2525)		//431
	(0.1589   	-0.0003   	-3.2525)		//432
	(0.1588   	-0.0045   	-3.2525)		//433
	(0.0323   	-0.0506   	-3.2525)		//434
	(-0.0869   	-0.0525   	-3.2525)		//435
	(-0.2101   	-0.0198   	-3.2525)		//436
	(-0.3548   	0.0059   	-3.2525)		//437
	(-0.3434   	0.0098   	-3.2525)		//438
	(-0.2326   	0.0267   	-3.2525)		//439
	(-0.0849   	0.0495   	-3.2525)		//440
	(0.0279   	0.0431   	-3.2525)		//441
	(0.1446   	0.0002   	-3.2525)		//442
	(0.1446   	-0.0036   	-3.2525)		//443
	(0.0263   	-0.0453   	-3.2525)		//444
	(-0.0866   	-0.0472   	-3.2525)		//445
	(-0.2332   	-0.0087   	-3.2525)		//446
	(-0.3434   	0.0075   	-3.2525)		//447
	(-0.3312   	0.0062   	-3.5861)		//448
	(-0.1963   	0.0309   	-3.5861)		//449
	(-0.0802   	0.0506   	-3.5861)		//450
	(0.0314   	0.045   	-3.5861)		//451
	(0.1488   	0.0015   	-3.5861)		//452
	(0.1488   	-0.0025   	-3.5861)		//453
	(0.0308   	-0.0471   	-3.5861)		//454
	(-0.0808   	-0.0501   	-3.5861)		//455
	(-0.1965   	-0.0208   	-3.5861)		//456
	(-0.3312   	0.0021   	-3.5861)		//457
	(-0.3186   	0.0057   	-3.5861)		//458
	(-0.1908   	0.0281   	-3.5861)		//459
	(-0.08   	0.0455   	-3.5861)		//460
	(0.0276   	0.0403   	-3.5861)		//461
	(0.1378   	0.0012   	-3.5861)		//462
	(0.1378   	-0.0024   	-3.5861)		//463
	(0.0271   	-0.0425   	-3.5861)		//464
	(-0.0805   	-0.0452   	-3.5861)		//465
	(-0.1911   	-0.0185   	-3.5861)		//466
	(-0.3186   	0.0032   	-3.5861)		//467
	(-0.3076   	0.0029   	-3.9197)		//468
	(-0.1834   	0.0271   	-3.9197)		//469
	(-0.0753   	0.0465   	-3.9197)		//470
	(0.0289   	0.0422   	-3.9197)		//471
	(0.1389   	0.0027   	-3.9197)		//472
	(0.1389   	-0.001   	-3.9197)		//473
	(0.0292   	-0.0437   	-3.9197)		//474
	(-0.075   	-0.0475   	-3.9197)		//475
	(-0.1832   	-0.0212   	-3.9197)		//476
	(-0.3076   	-0.0011   	-3.9197)		//477
	(-0.2959   	0.0029   	-3.9197)		//478
	(-0.1809   	0.0248   	-3.9197)		//479
	(-0.0751   	0.042   	-3.9197)		//480
	(0.0267   	0.0383   	-3.9197)		//481
	(0.1297   	0.0028   	-3.9197)		//482
	(0.1297   	-0.0005   	-3.9197)		//483
	(0.0269   	-0.039   	-3.9197)		//484
	(-0.0748   	-0.0426   	-3.9197)		//485
	(-0.1808   	-0.0187   	-3.9197)		//486
	(-0.2959   	0.0001   	-3.9197)		//487
	(-0.284   	0.0005   	-4.2533)		//488
	(-0.1704   	0.0237   	-4.2533)		//489
	(-0.0703   	0.0426   	-4.2533)		//490
	(0.0264   	0.0394   	-4.2533)		//491
	(0.1288   	0.0036   	-4.2533)		//492
	(0.1289   	0.0001   	-4.2533)		//493
	(0.0274   	-0.0403   	-4.2533)		//494
	(-0.0692   	-0.0446   	-4.2533)		//495
	(-0.1699   	-0.0211   	-4.2533)		//496
	(-0.284   	-0.0036   	-4.2533)		//497
	(-0.2697   	0.0006   	-4.2533)		//498
	(-0.1654   	0.0214   	-4.2533)		//499
	(-0.069   	0.0384   	-4.2533)		//500
	(0.0244   	0.0357   	-4.2533)		//501
	(0.1196   	0.0036   	-4.2533)		//502
	(0.1196   	0.0005   	-4.2533)		//503
	(0.0252   	-0.036   	-4.2533)		//504
	(-0.068   	-0.0401   	-4.2533)		//505
	(-0.1649   	-0.0189   	-4.2533)		//506
	(-0.2697   	-0.003   	-4.2533)		//507
	(-0.2604   	-0.0011   	-4.5868)		//508
	(-0.1573   	0.0209   	-4.5868)		//509
	(-0.0651   	0.0387   	-4.5868)		//510
	(0.0241   	0.0365   	-4.5868)		//511
	(0.1187   	0.0043   	-4.5868)		//512
	(0.1188   	0.0011   	-4.5868)		//513
	(0.0256   	-0.0369   	-4.5868)		//514
	(-0.0634   	-0.0417   	-4.5868)		//515
	(-0.1564   	-0.0207   	-4.5868)		//516
	(-0.2604   	-0.0052   	-4.5868)		//517
	(-0.2555   	-0.0022   	-4.5868)		//518
	(-0.1535   	0.0187   	-4.5868)		//519
	(-0.0631   	0.0351   	-4.5868)		//520
	(0.0242   	0.0336   	-4.5868)		//521
	(0.1125   	0.0048   	-4.5868)		//522
	(0.1125   	0.0019   	-4.5868)		//523
	(0.0255   	-0.0326   	-4.5868)		//524
	(-0.0616   	-0.0372   	-4.5868)		//525
	(-0.1527   	-0.0187   	-4.5868)		//526
	(-0.2555   	-0.0044   	-4.5868)		//527
	(-0.2368   	-0.0027   	-4.9204)		//528
	(-0.1441   	0.0176   	-4.9204)		//529
	(-0.0599   	0.035   	-4.9204)		//530
	(0.0218   	0.0336   	-4.9204)		//531
	(0.1087   	0.0048   	-4.9204)		//532
	(0.1088   	0.0019   	-4.9204)		//533
	(0.0237   	-0.0336   	-4.9204)		//534
	(-0.0578   	-0.0386   	-4.9204)		//535
	(-0.1431   	-0.0203   	-4.9204)		//536
	(-0.2368   	-0.0067   	-4.9204)		//537
	(-0.2318   	-0.0036   	-4.9204)		//538
	(-0.1403   	0.0153   	-4.9204)		//539
	(-0.0595   	0.031   	-4.9204)		//540
	(0.0187   	0.0298   	-4.9204)		//541
	(0.099   	0.0039   	-4.9204)		//542
	(0.0991   	0.0013   	-4.9204)		//543
	(0.0204   	-0.0307   	-4.9204)		//544
	(-0.0576   	-0.0353   	-4.9204)		//545
	(-0.1394   	-0.0189   	-4.9204)		//546
	(-0.2317   	-0.0056   	-4.9204)		//547
	(-0.2291   	-0.0031   	-5.0289)		//548
	(-0.1398   	0.017   	-5.0289)		//549
	(-0.0581   	0.0339   	-5.0289)		//550
	(0.0212   	0.0327   	-5.0289)		//551
	(0.1055   	0.0049   	-5.0289)		//552
	(0.1056   	0.002   	-5.0289)		//553
	(0.0231   	-0.0325   	-5.0289)		//554
	(-0.0559   	-0.0379   	-5.0289)		//555
	(-0.1387   	-0.0201   	-5.0289)		//556
	(-0.2291   	-0.0072   	-5.0289)		//557
	(-0.2247   	-0.0041   	-5.0289)		//558
	(-0.1357   	0.0153   	-5.0289)		//559
	(-0.0564   	0.0308   	-5.0289)		//560
	(0.0205   	0.0301   	-5.0289)		//561
	(0.0992   	0.0052   	-5.0289)		//562
	(0.0993   	0.0027   	-5.0289)		//563
	(0.0223   	-0.0286   	-5.0289)		//564
	(-0.0544   	-0.0338   	-5.0289)		//565
	(-0.1347   	-0.0181   	-5.0289)		//566
	(-0.2247   	-0.0062   	-5.0289)		//567
);

blocks
(
	hex (283 282 281 280 287 286 285 284) rotatingZone (2 2 10) simpleGrading (1 1 1)
	hex (10 19 9 0 30 39 29 20) rotatingZone (1 2 12) simpleGrading (1 1 1)
	hex (11 10 0 1 31 30 20 21) rotatingZone (3 2 12) simpleGrading (1 1 1)
	hex (12 11 1 2 32 31 21 22) rotatingZone (3 2 12) simpleGrading (1 1 1)
	hex (13 12 2 3 33 32 22 23) rotatingZone (3 2 12) simpleGrading (1 1 1)
	hex (14 13 3 4 34 33 23 24) rotatingZone (3 2 12) simpleGrading (1 1 1)
	hex (15 14 4 5 35 34 24 25) rotatingZone (1 2 12) simpleGrading (1 1 1)
	hex (16 15 5 6 36 35 25 26) rotatingZone (3 2 12) simpleGrading (1 1 1)
	hex (17 16 6 7 37 36 26 27) rotatingZone (3 2 12) simpleGrading (1 1 1)
	hex (18 17 7 8 38 37 27 28) rotatingZone (3 2 12) simpleGrading (1 1 1)
	hex (19 18 8 9 39 38 28 29) rotatingZone (3 2 12) simpleGrading (1 1 1)
	hex (30 39 29 20 50 59 49 40) rotatingZone (1 2 7) simpleGrading (1 1 1)
	hex (31 30 20 21 51 50 40 41) rotatingZone (3 2 7) simpleGrading (1 1 1)
	hex (32 31 21 22 52 51 41 42) rotatingZone (3 2 7) simpleGrading (1 1 1)
	hex (33 32 22 23 53 52 42 43) rotatingZone (3 2 7) simpleGrading (1 1 1)
	hex (34 33 23 24 54 53 43 44) rotatingZone (3 2 7) simpleGrading (1 1 1)
	hex (35 34 24 25 55 54 44 45) rotatingZone (1 2 7) simpleGrading (1 1 1)
	hex (36 35 25 26 56 55 45 46) rotatingZone (3 2 7) simpleGrading (1 1 1)
	hex (37 36 26 27 57 56 46 47) rotatingZone (3 2 7) simpleGrading (1 1 1)
	hex (38 37 27 28 58 57 47 48) rotatingZone (3 2 7) simpleGrading (1 1 1)
	hex (39 38 28 29 59 58 48 49) rotatingZone (3 2 7) simpleGrading (1 1 1)
	hex (50 59 49 40 70 79 69 60) rotatingZone (1 2 7) simpleGrading (1 1 1)
	hex (51 50 40 41 71 70 60 61) rotatingZone (3 2 7) simpleGrading (1 1 1)
	hex (52 51 41 42 72 71 61 62) rotatingZone (3 2 7) simpleGrading (1 1 1)
	hex (53 52 42 43 73 72 62 63) rotatingZone (3 2 7) simpleGrading (1 1 1)
	hex (54 53 43 44 74 73 63 64) rotatingZone (3 2 7) simpleGrading (1 1 1)
	hex (55 54 44 45 75 74 64 65) rotatingZone (1 2 7) simpleGrading (1 1 1)
	hex (56 55 45 46 76 75 65 66) rotatingZone (3 2 7) simpleGrading (1 1 1)
	hex (57 56 46 47 77 76 66 67) rotatingZone (3 2 7) simpleGrading (1 1 1)
	hex (58 57 47 48 78 77 67 68) rotatingZone (3 2 7) simpleGrading (1 1 1)
	hex (59 58 48 49 79 78 68 69) rotatingZone (3 2 7) simpleGrading (1 1 1)
	hex (70 79 69 60 90 99 89 80) rotatingZone (1 2 7) simpleGrading (1 1 1)
	hex (71 70 60 61 91 90 80 81) rotatingZone (3 2 7) simpleGrading (1 1 1)
	hex (72 71 61 62 92 91 81 82) rotatingZone (3 2 7) simpleGrading (1 1 1)
	hex (73 72 62 63 93 92 82 83) rotatingZone (3 2 7) simpleGrading (1 1 1)
	hex (74 73 63 64 94 93 83 84) rotatingZone (3 2 7) simpleGrading (1 1 1)
	hex (75 74 64 65 95 94 84 85) rotatingZone (1 2 7) simpleGrading (1 1 1)
	hex (76 75 65 66 96 95 85 86) rotatingZone (3 2 7) simpleGrading (1 1 1)
	hex (77 76 66 67 97 96 86 87) rotatingZone (3 2 7) simpleGrading (1 1 1)
	hex (78 77 67 68 98 97 87 88) rotatingZone (3 2 7) simpleGrading (1 1 1)
	hex (79 78 68 69 99 98 88 89) rotatingZone (3 2 7) simpleGrading (1 1 1)
	hex (90 99 89 80 110 119 109 100) rotatingZone (1 2 7) simpleGrading (1 1 1)
	hex (91 90 80 81 111 110 100 101) rotatingZone (3 2 7) simpleGrading (1 1 1)
	hex (92 91 81 82 112 111 101 102) rotatingZone (3 2 7) simpleGrading (1 1 1)
	hex (93 92 82 83 113 112 102 103) rotatingZone (3 2 7) simpleGrading (1 1 1)
	hex (94 93 83 84 114 113 103 104) rotatingZone (3 2 7) simpleGrading (1 1 1)
	hex (95 94 84 85 115 114 104 105) rotatingZone (1 2 7) simpleGrading (1 1 1)
	hex (96 95 85 86 116 115 105 106) rotatingZone (3 2 7) simpleGrading (1 1 1)
	hex (97 96 86 87 117 116 106 107) rotatingZone (3 2 7) simpleGrading (1 1 1)
	hex (98 97 87 88 118 117 107 108) rotatingZone (3 2 7) simpleGrading (1 1 1)
	hex (99 98 88 89 119 118 108 109) rotatingZone (3 2 7) simpleGrading (1 1 1)
	hex (110 119 109 100 130 139 129 120) rotatingZone (1 2 7) simpleGrading (1 1 1)
	hex (111 110 100 101 131 130 120 121) rotatingZone (3 2 7) simpleGrading (1 1 1)
	hex (112 111 101 102 132 131 121 122) rotatingZone (3 2 7) simpleGrading (1 1 1)
	hex (113 112 102 103 133 132 122 123) rotatingZone (3 2 7) simpleGrading (1 1 1)
	hex (114 113 103 104 134 133 123 124) rotatingZone (3 2 7) simpleGrading (1 1 1)
	hex (115 114 104 105 135 134 124 125) rotatingZone (1 2 7) simpleGrading (1 1 1)
	hex (116 115 105 106 136 135 125 126) rotatingZone (3 2 7) simpleGrading (1 1 1)
	hex (117 116 106 107 137 136 126 127) rotatingZone (3 2 7) simpleGrading (1 1 1)
	hex (118 117 107 108 138 137 127 128) rotatingZone (3 2 7) simpleGrading (1 1 1)
	hex (119 118 108 109 139 138 128 129) rotatingZone (3 2 7) simpleGrading (1 1 1)
	hex (130 139 129 120 150 159 149 140) rotatingZone (1 2 7) simpleGrading (1 1 1)
	hex (131 130 120 121 151 150 140 141) rotatingZone (3 2 7) simpleGrading (1 1 1)
	hex (132 131 121 122 152 151 141 142) rotatingZone (3 2 7) simpleGrading (1 1 1)
	hex (133 132 122 123 153 152 142 143) rotatingZone (3 2 7) simpleGrading (1 1 1)
	hex (134 133 123 124 154 153 143 144) rotatingZone (3 2 7) simpleGrading (1 1 1)
	hex (135 134 124 125 155 154 144 145) rotatingZone (1 2 7) simpleGrading (1 1 1)
	hex (136 135 125 126 156 155 145 146) rotatingZone (3 2 7) simpleGrading (1 1 1)
	hex (137 136 126 127 157 156 146 147) rotatingZone (3 2 7) simpleGrading (1 1 1)
	hex (138 137 127 128 158 157 147 148) rotatingZone (3 2 7) simpleGrading (1 1 1)
	hex (139 138 128 129 159 158 148 149) rotatingZone (3 2 7) simpleGrading (1 1 1)
	hex (150 159 149 140 170 179 169 160) rotatingZone (1 2 7) simpleGrading (1 1 1)
	hex (151 150 140 141 171 170 160 161) rotatingZone (3 2 7) simpleGrading (1 1 1)
	hex (152 151 141 142 172 171 161 162) rotatingZone (3 2 7) simpleGrading (1 1 1)
	hex (153 152 142 143 173 172 162 163) rotatingZone (3 2 7) simpleGrading (1 1 1)
	hex (154 153 143 144 174 173 163 164) rotatingZone (3 2 7) simpleGrading (1 1 1)
	hex (155 154 144 145 175 174 164 165) rotatingZone (1 2 7) simpleGrading (1 1 1)
	hex (156 155 145 146 176 175 165 166) rotatingZone (3 2 7) simpleGrading (1 1 1)
	hex (157 156 146 147 177 176 166 167) rotatingZone (3 2 7) simpleGrading (1 1 1)
	hex (158 157 147 148 178 177 167 168) rotatingZone (3 2 7) simpleGrading (1 1 1)
	hex (159 158 148 149 179 178 168 169) rotatingZone (3 2 7) simpleGrading (1 1 1)
	hex (170 179 169 160 190 199 189 180) rotatingZone (1 2 7) simpleGrading (1 1 1)
	hex (171 170 160 161 191 190 180 181) rotatingZone (3 2 7) simpleGrading (1 1 1)
	hex (172 171 161 162 192 191 181 182) rotatingZone (3 2 7) simpleGrading (1 1 1)
	hex (173 172 162 163 193 192 182 183) rotatingZone (3 2 7) simpleGrading (1 1 1)
	hex (174 173 163 164 194 193 183 184) rotatingZone (3 2 7) simpleGrading (1 1 1)
	hex (175 174 164 165 195 194 184 185) rotatingZone (1 2 7) simpleGrading (1 1 1)
	hex (176 175 165 166 196 195 185 186) rotatingZone (3 2 7) simpleGrading (1 1 1)
	hex (177 176 166 167 197 196 186 187) rotatingZone (3 2 7) simpleGrading (1 1 1)
	hex (178 177 167 168 198 197 187 188) rotatingZone (3 2 7) simpleGrading (1 1 1)
	hex (179 178 168 169 199 198 188 189) rotatingZone (3 2 7) simpleGrading (1 1 1)
	hex (190 199 189 180 210 219 209 200) rotatingZone (1 2 7) simpleGrading (1 1 1)
	hex (191 190 180 181 211 210 200 201) rotatingZone (3 2 7) simpleGrading (1 1 1)
	hex (192 191 181 182 212 211 201 202) rotatingZone (3 2 7) simpleGrading (1 1 1)
	hex (193 192 182 183 213 212 202 203) rotatingZone (3 2 7) simpleGrading (1 1 1)
	hex (194 193 183 184 214 213 203 204) rotatingZone (3 2 7) simpleGrading (1 1 1)
	hex (195 194 184 185 215 214 204 205) rotatingZone (1 2 7) simpleGrading (1 1 1)
	hex (196 195 185 186 216 215 205 206) rotatingZone (3 2 7) simpleGrading (1 1 1)
	hex (197 196 186 187 217 216 206 207) rotatingZone (3 2 7) simpleGrading (1 1 1)
	hex (198 197 187 188 218 217 207 208) rotatingZone (3 2 7) simpleGrading (1 1 1)
	hex (199 198 188 189 219 218 208 209) rotatingZone (3 2 7) simpleGrading (1 1 1)
	hex (210 219 209 200 230 239 229 220) rotatingZone (1 2 7) simpleGrading (1 1 1)
	hex (211 210 200 201 231 230 220 221) rotatingZone (3 2 7) simpleGrading (1 1 1)
	hex (212 211 201 202 232 231 221 222) rotatingZone (3 2 7) simpleGrading (1 1 1)