// * * * * * * * * * * * * * * * * * * * * * * * * * * * * * * * * * * * * * //
FoamFile
{
	version     2.0;
	format      ascii;
	class       dictionary;
	object      blockMeshDict;
}
// * * * * * * * * * * * * * * * * * * * * * * * * * * * * * * * * * * * * * //
convertToMeters 1;

vertices
(
	(-1.4335   	0.0786   	27.968)		//0
	(-1.527   	-0.6034   	27.968)		//1
	(1.9752   	0.2046   	27.968)		//2
	(1.9707   	0.2368   	27.968)		//3
	(-2.7536   	2.4792   	27.968)		//4
	(-2.7536   	-2.5208   	27.968)		//5
	(3.2464   	-2.5208   	27.968)		//6
	(3.2464   	2.4792   	27.968)		//7
	(-1.3872   	0.0687   	32.3977)		//8
	(-1.4901   	-0.5554   	32.3977)		//9
	(1.7867   	0.1139   	32.3977)		//10
	(1.7833   	0.1441   	32.3977)		//11
	(-2.8268   	2.4428   	32.3977)		//12
	(-2.8268   	-2.5572   	32.3977)		//13
	(3.1732   	-2.5572   	32.3977)		//14
	(3.1732   	2.4428   	32.3977)		//15
	(-1.3484   	0.0469   	36.2367)		//16
	(-1.4643   	-0.4517   	36.2367)		//17
	(1.6293   	0.0412   	36.2367)		//18
	(1.6261   	0.0748   	36.2367)		//19
	(-2.8893   	2.4278   	36.2367)		//20
	(-2.8893   	-2.5722   	36.2367)		//21
	(3.1107   	-2.5722   	36.2367)		//22
	(3.1107   	2.4278   	36.2367)		//23
);

blocks
(
	hex (0 3 7 4 8 11 15 12) rotatingZone (10 10 10) simpleGrading (1 1 1)
	hex (1 0 4 5 9 8 12 13) rotatingZone (10 10 10) simpleGrading (1 1 1)
	hex (2 1 5 6 10 9 13 14) rotatingZone (10 10 10) simpleGrading (1 1 1)
	hex (3 2 6 7 11 10 14 15) rotatingZone (10 10 10) simpleGrading (1 1 1)
	hex (8 11 15 12 16 19 23 20) rotatingZone (10 10 10) simpleGrading (1 1 1)
	hex (9 8 12 13 17 16 20 21) rotatingZone (10 10 10) simpleGrading (1 1 1)
	hex (10 9 13 14 18 17 21 22) rotatingZone (10 10 10) simpleGrading (1 1 1)
	hex (11 10 14 15 19 18 22 23) rotatingZone (10 10 10) simpleGrading (1 1 1)
);

edges
(
	BSpline 1 0
	(
		(-1.6812 -0.5365 27.968)
		(-1.7908 -0.457 27.968)
		(-1.8567 -0.3411 27.968)
		(-1.8226 -0.2269 27.968)
		(-1.7372 -0.1305 27.968)
		(-1.6067 -0.0266 27.968)
	)
	BSpline 0 3
	(
		(-1.2216 0.1785 27.968)
		(-0.9756 0.2669 27.968)
		(-0.7007 0.3361 27.968)
		(-0.4029 0.3782 27.968)
		(-0.0898 0.3939 27.968)
		(0.2297 0.3912 27.968)
		(0.5471 0.3758 27.968)
		(0.8539 0.3527 27.968)
		(1.1419 0.3264 27.968)
		(1.4038 0.2998 27.968)
		(1.6329 0.2751 27.968)
		(1.8235 0.2539 27.968)
	)
	BSpline 3 2
	(
		(2.0712 0.2238 27.968)
		(2.1233 0.2078 27.968)
		(2.0742 0.2016 27.968)
	)
	BSpline 2 1
	(
		(1.8307 0.2016 27.968)
		(1.6461 0.1799 27.968)
		(1.4275 0.1283 27.968)
		(1.1816 0.0392 27.968)
		(0.9144 -0.0859 27.968)
		(0.631 -0.2321 27.968)
		(0.3359 -0.3783 27.968)
		(0.0344 -0.5064 27.968)
		(-0.2674 -0.6037 27.968)
		(-0.5623 -0.6664 27.968)
		(-0.8429 -0.6936 27.968)
		(-1.1019 -0.6881 27.968)
		(-1.3321 -0.6557 27.968)
	)
	BSpline 9 8
	(
		(-1.6318 -0.4921 32.3977)
		(-1.7318 -0.4175 32.3977)
		(-1.7905 -0.3097 32.3977)
		(-1.7561 -0.205 32.3977)
		(-1.6745 -0.1179 32.3977)
		(-1.5506 -0.0248 32.3977)
	)
	BSpline 8 11
	(
		(-1.1879 0.1569 32.3977)
		(-0.957 0.234 32.3977)
		(-0.6999 0.2932 32.3977)
		(-0.422 0.3266 32.3977)
		(-0.1304 0.335 32.3977)
		(0.1668 0.3257 32.3977)
		(0.4618 0.3045 32.3977)
		(0.7467 0.2763 32.3977)
		(1.0141 0.2455 32.3977)
		(1.2572 0.2151 32.3977)
		(1.4698 0.1872 32.3977)
		(1.6466 0.1633 32.3977)
	)
	BSpline 11 10
	(
		(1.8764 0.1298 32.3977)
		(1.9246 0.1138 32.3977)
		(1.8788 0.109 32.3977)
	)
	BSpline 10 9
	(
		(1.6522 0.1144 32.3977)
		(1.4798 0.0989 32.3977)
		(1.2752 0.0566 32.3977)
		(1.0443 -0.0198 32.3977)
		(0.7929 -0.1293 32.3977)
		(0.526 -0.258 32.3977)
		(0.248 -0.386 32.3977)
		(-0.0355 -0.4966 32.3977)
		(-0.3187 -0.5784 32.3977)
		(-0.5947 -0.6289 32.3977)
		(-0.8564 -0.6481 32.3977)
		(-1.097 -0.6389 32.3977)
		(-1.3102 -0.606 32.3977)
	)
	BSpline 17 16
	(
		(-1.5942 -0.4101 36.2367)
		(-1.6846 -0.3604 36.2367)
		(-1.735 -0.2863 36.2367)
		(-1.7008 -0.1888 36.2367)
		(-1.6222 -0.1139 36.2367)
		(-1.5039 -0.0336 36.2367)
	)
	BSpline 16 19
	(
		(-1.1595 0.1229 36.2367)
		(-0.9414 0.1898 36.2367)
		(-0.6992 0.2425 36.2367)
		(-0.4385 0.2752 36.2367)
		(-0.1654 0.2845 36.2367)
		(0.113 0.2731 36.2367)
		(0.3893 0.2486 36.2367)
		(0.656 0.2173 36.2367)
		(0.9063 0.184 36.2367)
		(1.1338 0.1514 36.2367)
		(1.3328 0.1214 36.2367)
		(1.4983 0.0956 36.2367)
	)
	BSpline 19 18
	(
		(1.7133 0.0595 36.2367)
		(1.7582 0.0436 36.2367)
		(1.7152 0.039 36.2367)
	)
	BSpline 18 17
	(
		(1.5036 0.0395 36.2367)
		(1.3417 0.027 36.2367)
		(1.1485 -0.0039 36.2367)
		(0.9292 -0.0584 36.2367)
		(0.6894 -0.1358 36.2367)
		(0.4342 -0.2265 36.2367)
		(0.1688 -0.3168 36.2367)
		(-0.1012 -0.3954 36.2367)
		(-0.3696 -0.4542 36.2367)
		(-0.6298 -0.4918 36.2367)
		(-0.8754 -0.5077 36.2367)
		(-1.1002 -0.5042 36.2367)
		(-1.2982 -0.4841 36.2367)
	)
);

boundary
(
);
// ************************************************************************* //