// * * * * * * * * * * * * * * * * * * * * * * * * * * * * * * * * * * * * * //
FoamFile
{
	version     2.0;
	format      ascii;
	class       dictionary;
	object      blockMeshDict;
}
// * * * * * * * * * * * * * * * * * * * * * * * * * * * * * * * * * * * * * //
convertToMeters 1;

vertices
(
	(0.1063   	0.0238   	0.5004)		//0
	(0.0571   	0.0928   	0.5004)		//1
	(-0.0086   	0.1086   	0.5004)		//2
	(-0.0571   	0.0928   	0.5004)		//3
	(-0.1063   	0.0238   	0.5004)		//4
	(-0.109   	-0.0   	0.5004)		//5
	(-0.0571   	-0.0928   	0.5004)		//6
	(0.0086   	-0.1086   	0.5004)		//7
	(0.0571   	-0.0928   	0.5004)		//8
	(0.109   	-0.0   	0.5004)		//9
	(0.4633   	0.1732   	1.251)		//10
	(0.3062   	0.1482   	1.251)		//11
	(0.142   	0.1223   	1.251)		//12
	(-0.0193   	0.07   	1.251)		//13
	(-0.2059   	-0.0712   	1.251)		//14
	(-0.204   	-0.0767   	1.251)		//15
	(-0.0196   	-0.0806   	1.251)		//16
	(0.1355   	-0.0299   	1.251)		//17
	(0.2805   	0.0673   	1.251)		//18
	(0.4633   	0.1685   	1.251)		//19
	(0.4589   	0.1112   	1.5845)		//20
	(0.3093   	0.1073   	1.5845)		//21
	(0.1498   	0.0993   	1.5845)		//22
	(-0.0568   	0.0519   	1.5845)		//23
	(-0.2042   	-0.0439   	1.5845)		//24
	(-0.2029   	-0.0493   	1.5845)		//25
	(-0.0277   	-0.074   	1.5845)		//26
	(0.1261   	-0.0437   	1.5845)		//27
	(0.2755   	0.0321   	1.5845)		//28
	(0.459   	0.1067   	1.5845)		//29
	(0.4437   	0.0709   	1.9181)		//30
	(0.3014   	0.0757   	1.9181)		//31
	(0.1497   	0.0828   	1.9181)		//32
	(-0.0499   	0.0535   	1.9181)		//33
	(-0.197   	-0.0261   	1.9181)		//34
	(-0.1962   	-0.0314   	1.9181)		//35
	(-0.0319   	-0.068   	1.9181)		//36
	(0.1163   	-0.051   	1.9181)		//37
	(0.2638   	0.0095   	1.9181)		//38
	(0.4437   	0.0666   	1.9181)		//39
	(0.4233   	0.0458   	2.2517)		//40
	(0.2901   	0.0589   	2.2517)		//41
	(0.0959   	0.073   	2.2517)		//42
	(-0.0447   	0.0534   	2.2517)		//43
	(-0.1884   	-0.0147   	2.2517)		//44
	(-0.188   	-0.0198   	2.2517)		//45
	(-0.0338   	-0.063   	2.2517)		//46
	(0.1078   	-0.0544   	2.2517)		//47
	(0.251   	-0.0044   	2.2517)		//48
	(0.4233   	0.0416   	2.2517)		//49
	(0.4012   	0.0274   	2.5853)		//50
	(0.2764   	0.0439   	2.5853)		//51
	(0.0931   	0.0658   	2.5853)		//52
	(-0.0405   	0.052   	2.5853)		//53
	(-0.1788   	-0.0076   	2.5853)		//54
	(-0.1785   	-0.0124   	2.5853)		//55
	(-0.0341   	-0.0585   	2.5853)		//56
	(0.1002   	-0.0551   	2.5853)		//57
	(0.2373   	-0.0126   	2.5853)		//58
	(0.4012   	0.0232   	2.5853)		//59
	(0.378   	0.0181   	2.9189)		//60
	(0.2216   	0.0421   	2.9189)		//61
	(0.0894   	0.06   	2.9189)		//62
	(-0.037   	0.05   	2.9189)		//63
	(-0.1689   	-0.0031   	2.9189)		//64
	(-0.1687   	-0.0076   	2.9189)		//65
	(-0.0335   	-0.0544   	2.9189)		//66
	(0.0932   	-0.0542   	2.9189)		//67
	(0.2236   	-0.0173   	2.9189)		//68
	(0.378   	0.0136   	2.9189)		//69
	(0.3548   	0.01   	3.2525)		//70
	(0.2091   	0.0354   	3.2525)		//71
	(0.085   	0.055   	3.2525)		//72
	(-0.034   	0.0476   	3.2525)		//73
	(-0.1589   	-0.0003   	3.2525)		//74
	(-0.1588   	-0.0045   	3.2525)		//75
	(-0.0323   	-0.0506   	3.2525)		//76
	(0.0869   	-0.0525   	3.2525)		//77
	(0.2101   	-0.0198   	3.2525)		//78
	(0.3548   	0.0059   	3.2525)		//79
	(0.3312   	0.0062   	3.5861)		//80
	(0.1963   	0.0309   	3.5861)		//81
	(0.0802   	0.0506   	3.5861)		//82
	(-0.0314   	0.045   	3.5861)		//83
	(-0.1488   	0.0015   	3.5861)		//84
	(-0.1488   	-0.0025   	3.5861)		//85
	(-0.0308   	-0.0471   	3.5861)		//86
	(0.0808   	-0.0501   	3.5861)		//87
	(0.1965   	-0.0208   	3.5861)		//88
	(0.3312   	0.0021   	3.5861)		//89
	(0.3076   	0.0029   	3.9197)		//90
	(0.1834   	0.0271   	3.9197)		//91
	(0.0753   	0.0465   	3.9197)		//92
	(-0.0289   	0.0422   	3.9197)		//93
	(-0.1389   	0.0027   	3.9197)		//94
	(-0.1389   	-0.001   	3.9197)		//95
	(-0.0292   	-0.0437   	3.9197)		//96
	(0.075   	-0.0475   	3.9197)		//97
	(0.1832   	-0.0212   	3.9197)		//98
	(0.3076   	-0.0011   	3.9197)		//99
	(0.284   	0.0005   	4.2533)		//100
	(0.1704   	0.0237   	4.2533)		//101
	(0.0703   	0.0426   	4.2533)		//102
	(-0.0264   	0.0394   	4.2533)		//103
	(-0.1288   	0.0036   	4.2533)		//104
	(-0.1289   	0.0001   	4.2533)		//105
	(-0.0274   	-0.0403   	4.2533)		//106
	(0.0692   	-0.0446   	4.2533)		//107
	(0.1699   	-0.0211   	4.2533)		//108
	(0.284   	-0.0036   	4.2533)		//109
	(0.2604   	-0.0011   	4.5868)		//110
	(0.1573   	0.0209   	4.5868)		//111
	(0.0651   	0.0387   	4.5868)		//112
	(-0.0241   	0.0365   	4.5868)		//113
	(-0.1187   	0.0043   	4.5868)		//114
	(-0.1188   	0.0011   	4.5868)		//115
	(-0.0256   	-0.0369   	4.5868)		//116
	(0.0634   	-0.0417   	4.5868)		//117
	(0.1564   	-0.0207   	4.5868)		//118
	(0.2604   	-0.0052   	4.5868)		//119
	(0.2368   	-0.0027   	4.9204)		//120
	(0.1441   	0.0176   	4.9204)		//121
	(0.0599   	0.035   	4.9204)		//122
	(-0.0218   	0.0336   	4.9204)		//123
	(-0.1087   	0.0048   	4.9204)		//124
	(-0.1088   	0.0019   	4.9204)		//125
	(-0.0237   	-0.0336   	4.9204)		//126
	(0.0578   	-0.0386   	4.9204)		//127
	(0.1431   	-0.0203   	4.9204)		//128
	(0.2368   	-0.0067   	4.9204)		//129
	(0.2291   	-0.0031   	5.0289)		//130
	(0.1398   	0.017   	5.0289)		//131
	(0.0581   	0.0339   	5.0289)		//132
	(-0.0212   	0.0327   	5.0289)		//133
	(-0.1055   	0.0049   	5.0289)		//134
	(-0.1056   	0.002   	5.0289)		//135
	(-0.0231   	-0.0325   	5.0289)		//136
	(0.0559   	-0.0379   	5.0289)		//137
	(0.1387   	-0.0201   	5.0289)		//138
	(0.2291   	-0.0072   	5.0289)		//139
	(-0.1063   	0.0238   	-0.5004)		//140
	(-0.0571   	0.0928   	-0.5004)		//141
	(0.0086   	0.1086   	-0.5004)		//142
	(0.0571   	0.0928   	-0.5004)		//143
	(0.1063   	0.0238   	-0.5004)		//144
	(0.109   	-0.0   	-0.5004)		//145
	(0.0571   	-0.0928   	-0.5004)		//146
	(-0.0086   	-0.1086   	-0.5004)		//147
	(-0.0571   	-0.0928   	-0.5004)		//148
	(-0.109   	-0.0   	-0.5004)		//149
	(-0.4633   	0.1732   	-1.251)		//150
	(-0.3062   	0.1482   	-1.251)		//151
	(-0.142   	0.1223   	-1.251)		//152
	(0.0193   	0.07   	-1.251)		//153
	(0.2059   	-0.0712   	-1.251)		//154
	(0.204   	-0.0767   	-1.251)		//155
	(0.0196   	-0.0806   	-1.251)		//156
	(-0.1355   	-0.0299   	-1.251)		//157
	(-0.2805   	0.0673   	-1.251)		//158
	(-0.4633   	0.1685   	-1.251)		//159
	(-0.4589   	0.1112   	-1.5845)		//160
	(-0.3093   	0.1073   	-1.5845)		//161
	(-0.1498   	0.0993   	-1.5845)		//162
	(0.0568   	0.0519   	-1.5845)		//163
	(0.2042   	-0.0439   	-1.5845)		//164
	(0.2029   	-0.0493   	-1.5845)		//165
	(0.0277   	-0.074   	-1.5845)		//166
	(-0.1261   	-0.0437   	-1.5845)		//167
	(-0.2755   	0.0321   	-1.5845)		//168
	(-0.459   	0.1067   	-1.5845)		//169
	(-0.4437   	0.0709   	-1.9181)		//170
	(-0.3014   	0.0757   	-1.9181)		//171
	(-0.1497   	0.0828   	-1.9181)		//172
	(0.0499   	0.0535   	-1.9181)		//173
	(0.197   	-0.0261   	-1.9181)		//174
	(0.1962   	-0.0314   	-1.9181)		//175
	(0.0319   	-0.068   	-1.9181)		//176
	(-0.1163   	-0.051   	-1.9181)		//177
	(-0.2638   	0.0095   	-1.9181)		//178
	(-0.4437   	0.0666   	-1.9181)		//179
	(-0.4233   	0.0458   	-2.2517)		//180
	(-0.2901   	0.0589   	-2.2517)		//181
	(-0.0959   	0.073   	-2.2517)		//182
	(0.0447   	0.0534   	-2.2517)		//183
	(0.1884   	-0.0147   	-2.2517)		//184
	(0.188   	-0.0198   	-2.2517)		//185
	(0.0338   	-0.063   	-2.2517)		//186
	(-0.1078   	-0.0544   	-2.2517)		//187
	(-0.251   	-0.0044   	-2.2517)		//188
	(-0.4233   	0.0416   	-2.2517)		//189
	(-0.4012   	0.0274   	-2.5853)		//190
	(-0.2764   	0.0439   	-2.5853)		//191
	(-0.0931   	0.0658   	-2.5853)		//192
	(0.0405   	0.052   	-2.5853)		//193
	(0.1788   	-0.0076   	-2.5853)		//194
	(0.1785   	-0.0124   	-2.5853)		//195
	(0.0341   	-0.0585   	-2.5853)		//196
	(-0.1002   	-0.0551   	-2.5853)		//197
	(-0.2373   	-0.0126   	-2.5853)		//198
	(-0.4012   	0.0232   	-2.5853)		//199
	(-0.378   	0.0181   	-2.9189)		//200
	(-0.2216   	0.0421   	-2.9189)		//201
	(-0.0894   	0.06   	-2.9189)		//202
	(0.037   	0.05   	-2.9189)		//203
	(0.1689   	-0.0031   	-2.9189)		//204
	(0.1687   	-0.0076   	-2.9189)		//205
	(0.0335   	-0.0544   	-2.9189)		//206
	(-0.0932   	-0.0542   	-2.9189)		//207
	(-0.2236   	-0.0173   	-2.9189)		//208
	(-0.378   	0.0136   	-2.9189)		//209
	(-0.3548   	0.01   	-3.2525)		//210
	(-0.2091   	0.0354   	-3.2525)		//211
	(-0.085   	0.055   	-3.2525)		//212
	(0.034   	0.0476   	-3.2525)		//213
	(0.1589   	-0.0003   	-3.2525)		//214
	(0.1588   	-0.0045   	-3.2525)		//215
	(0.0323   	-0.0506   	-3.2525)		//216
	(-0.0869   	-0.0525   	-3.2525)		//217
	(-0.2101   	-0.0198   	-3.2525)		//218
	(-0.3548   	0.0059   	-3.2525)		//219
	(-0.3312   	0.0062   	-3.5861)		//220
	(-0.1963   	0.0309   	-3.5861)		//221
	(-0.0802   	0.0506   	-3.5861)		//222
	(0.0314   	0.045   	-3.5861)		//223
	(0.1488   	0.0015   	-3.5861)		//224
	(0.1488   	-0.0025   	-3.5861)		//225
	(0.0308   	-0.0471   	-3.5861)		//226
	(-0.0808   	-0.0501   	-3.5861)		//227
	(-0.1965   	-0.0208   	-3.5861)		//228
	(-0.3312   	0.0021   	-3.5861)		//229
	(-0.3076   	0.0029   	-3.9197)		//230
	(-0.1834   	0.0271   	-3.9197)		//231
	(-0.0753   	0.0465   	-3.9197)		//232
	(0.0289   	0.0422   	-3.9197)		//233
	(0.1389   	0.0027   	-3.9197)		//234
	(0.1389   	-0.001   	-3.9197)		//235
	(0.0292   	-0.0437   	-3.9197)		//236
	(-0.075   	-0.0475   	-3.9197)		//237
	(-0.1832   	-0.0212   	-3.9197)		//238
	(-0.3076   	-0.0011   	-3.9197)		//239
	(-0.284   	0.0005   	-4.2533)		//240
	(-0.1704   	0.0237   	-4.2533)		//241
	(-0.0703   	0.0426   	-4.2533)		//242
	(0.0264   	0.0394   	-4.2533)		//243
	(0.1288   	0.0036   	-4.2533)		//244
	(0.1289   	0.0001   	-4.2533)		//245
	(0.0274   	-0.0403   	-4.2533)		//246
	(-0.0692   	-0.0446   	-4.2533)		//247
	(-0.1699   	-0.0211   	-4.2533)		//248
	(-0.284   	-0.0036   	-4.2533)		//249
	(-0.2604   	-0.0011   	-4.5868)		//250
	(-0.1573   	0.0209   	-4.5868)		//251
	(-0.0651   	0.0387   	-4.5868)		//252
	(0.0241   	0.0365   	-4.5868)		//253
	(0.1187   	0.0043   	-4.5868)		//254
	(0.1188   	0.0011   	-4.5868)		//255
	(0.0256   	-0.0369   	-4.5868)		//256
	(-0.0634   	-0.0417   	-4.5868)		//257
	(-0.1564   	-0.0207   	-4.5868)		//258
	(-0.2604   	-0.0052   	-4.5868)		//259
	(-0.2368   	-0.0027   	-4.9204)		//260
	(-0.1441   	0.0176   	-4.9204)		//261
	(-0.0599   	0.035   	-4.9204)		//262
	(0.0218   	0.0336   	-4.9204)		//263
	(0.1087   	0.0048   	-4.9204)		//264
	(0.1088   	0.0019   	-4.9204)		//265
	(0.0237   	-0.0336   	-4.9204)		//266
	(-0.0578   	-0.0386   	-4.9204)		//267
	(-0.1431   	-0.0203   	-4.9204)		//268
	(-0.2368   	-0.0067   	-4.9204)		//269
	(-0.2291   	-0.0031   	-5.0289)		//270
	(-0.1398   	0.017   	-5.0289)		//271
	(-0.0581   	0.0339   	-5.0289)		//272
	(0.0212   	0.0327   	-5.0289)		//273
	(0.1055   	0.0049   	-5.0289)		//274
	(0.1056   	0.002   	-5.0289)		//275
	(0.0231   	-0.0325   	-5.0289)		//276
	(-0.0559   	-0.0379   	-5.0289)		//277
	(-0.1387   	-0.0201   	-5.0289)		//278
	(-0.2291   	-0.0072   	-5.0289)		//279
);

blocks
(
	hex (1 8 9 0 11 18 19 10) rotatingZone (10 10 12) simpleGrading (1 1 1)
	hex (2 7 8 1 12 17 18 11) rotatingZone (10 10 12) simpleGrading (1 1 1)
	hex (3 6 7 2 13 16 17 12) rotatingZone (10 10 12) simpleGrading (1 1 1)
	hex (4 5 6 3 14 15 16 13) rotatingZone (10 10 12) simpleGrading (1 1 1)
	hex (11 18 19 10 21 28 29 20) rotatingZone (10 10 7) simpleGrading (1 1 1)
	hex (12 17 18 11 22 27 28 21) rotatingZone (10 10 7) simpleGrading (1 1 1)
	hex (13 16 17 12 23 26 27 22) rotatingZone (10 10 7) simpleGrading (1 1 1)
	hex (14 15 16 13 24 25 26 23) rotatingZone (10 10 7) simpleGrading (1 1 1)
	hex (21 28 29 20 31 38 39 30) rotatingZone (10 10 7) simpleGrading (1 1 1)
	hex (22 27 28 21 32 37 38 31) rotatingZone (10 10 7) simpleGrading (1 1 1)
	hex (23 26 27 22 33 36 37 32) rotatingZone (10 10 7) simpleGrading (1 1 1)
	hex (24 25 26 23 34 35 36 33) rotatingZone (10 10 7) simpleGrading (1 1 1)
	hex (31 38 39 30 41 48 49 40) rotatingZone (10 10 7) simpleGrading (1 1 1)
	hex (32 37 38 31 42 47 48 41) rotatingZone (10 10 7) simpleGrading (1 1 1)
	hex (33 36 37 32 43 46 47 42) rotatingZone (10 10 7) simpleGrading (1 1 1)
	hex (34 35 36 33 44 45 46 43) rotatingZone (10 10 7) simpleGrading (1 1 1)
	hex (41 48 49 40 51 58 59 50) rotatingZone (10 10 7) simpleGrading (1 1 1)
	hex (42 47 48 41 52 57 58 51) rotatingZone (10 10 7) simpleGrading (1 1 1)
	hex (43 46 47 42 53 56 57 52) rotatingZone (10 10 7) simpleGrading (1 1 1)
	hex (44 45 46 43 54 55 56 53) rotatingZone (10 10 7) simpleGrading (1 1 1)
	hex (51 58 59 50 61 68 69 60) rotatingZone (10 10 7) simpleGrading (1 1 1)
	hex (52 57 58 51 62 67 68 61) rotatingZone (10 10 7) simpleGrading (1 1 1)
	hex (53 56 57 52 63 66 67 62) rotatingZone (10 10 7) simpleGrading (1 1 1)
	hex (54 55 56 53 64 65 66 63) rotatingZone (10 10 7) simpleGrading (1 1 1)
	hex (61 68 69 60 71 78 79 70) rotatingZone (10 10 7) simpleGrading (1 1 1)
	hex (62 67 68 61 72 77 78 71) rotatingZone (10 10 7) simpleGrading (1 1 1)
	hex (63 66 67 62 73 76 77 72) rotatingZone (10 10 7) simpleGrading (1 1 1)
	hex (64 65 66 63 74 75 76 73) rotatingZone (10 10 7) simpleGrading (1 1 1)
	hex (71 78 79 70 81 88 89 80) rotatingZone (10 10 7) simpleGrading (1 1 1)
	hex (72 77 78 71 82 87 88 81) rotatingZone (10 10 7) simpleGrading (1 1 1)
	hex (73 76 77 72 83 86 87 82) rotatingZone (10 10 7) simpleGrading (1 1 1)
	hex (74 75 76 73 84 85 86 83) rotatingZone (10 10 7) simpleGrading (1 1 1)
	hex (81 88 89 80 91 98 99 90) rotatingZone (10 10 7) simpleGrading (1 1 1)
	hex (82 87 88 81 92 97 98 91) rotatingZone (10 10 7) simpleGrading (1 1 1)
	hex (83 86 87 82 93 96 97 92) rotatingZone (10 10 7) simpleGrading (1 1 1)
	hex (84 85 86 83 94 95 96 93) rotatingZone (10 10 7) simpleGrading (1 1 1)
	hex (91 98 99 90 101 108 109 100) rotatingZone (10 10 7) simpleGrading (1 1 1)
	hex (92 97 98 91 102 107 108 101) rotatingZone (10 10 7) simpleGrading (1 1 1)
	hex (93 96 97 92 103 106 107 102) rotatingZone (10 10 7) simpleGrading (1 1 1)
	hex (94 95 96 93 104 105 106 103) rotatingZone (10 10 7) simpleGrading (1 1 1)
	hex (101 108 109 100 111 118 119 110) rotatingZone (10 10 7) simpleGrading (1 1 1)
	hex (102 107 108 101 112 117 118 111) rotatingZone (10 10 7) simpleGrading (1 1 1)
	hex (103 106 107 102 113 116 117 112) rotatingZone (10 10 7) simpleGrading (1 1 1)
	hex (104 105 106 103 114 115 116 113) rotatingZone (10 10 7) simpleGrading (1 1 1)
	hex (111 118 119 110 121 128 129 120) rotatingZone (10 10 7) simpleGrading (1 1 1)
	hex (112 117 118 111 122 127 128 121) rotatingZone (10 10 7) simpleGrading (1 1 1)
	hex (113 116 117 112 123 126 127 122) rotatingZone (10 10 7) simpleGrading (1 1 1)
	hex (114 115 116 113 124 125 126 123) rotatingZone (10 10 7) simpleGrading (1 1 1)
	hex (121 128 129 120 131 138 139 130) rotatingZone (10 10 3) simpleGrading (1 1 1)
	hex (122 127 128 121 132 137 138 131) rotatingZone (10 10 3) simpleGrading (1 1 1)
	hex (123 126 127 122 133 136 137 132) rotatingZone (10 10 3) simpleGrading (1 1 1)
	hex (124 125 126 123 134 135 136 133) rotatingZone (10 10 3) simpleGrading (1 1 1)
	hex (141 148 149 140 151 158 159 150) rotatingZone (10 10 12) simpleGrading (1 1 1)
	hex (142 147 148 141 152 157 158 151) rotatingZone (10 10 12) simpleGrading (1 1 1)
	hex (143 146 147 142 153 156 157 152) rotatingZone (10 10 12) simpleGrading (1 1 1)
	hex (144 145 146 143 154 155 156 153) rotatingZone (10 10 12) simpleGrading (1 1 1)
	hex (151 158 159 150 161 168 169 160) rotatingZone (10 10 7) simpleGrading (1 1 1)
	hex (152 157 158 151 162 167 168 161) rotatingZone (10 10 7) simpleGrading (1 1 1)
	hex (153 156 157 152 163 166 167 162) rotatingZone (10 10 7) simpleGrading (1 1 1)
	hex (154 155 156 153 164 165 166 163) rotatingZone (10 10 7) simpleGrading (1 1 1)
	hex (161 168 169 160 171 178 179 170) rotatingZone (10 10 7) simpleGrading (1 1 1)
	hex (162 167 168 161 172 177 178 171) rotatingZone (10 10 7) simpleGrading (1 1 1)
	hex (163 166 167 162 173 176 177 172) rotatingZone (10 10 7) simpleGrading (1 1 1)
	hex (164 165 166 163 174 175 176 173) rotatingZone (10 10 7) simpleGrading (1 1 1)
	hex (171 178 179 170 181 188 189 180) rotatingZone (10 10 7) simpleGrading (1 1 1)
	hex (172 177 178 171 182 187 188 181) rotatingZone (10 10 7) simpleGrading (1 1 1)
	hex (173 176 177 172 183 186 187 182) rotatingZone (10 10 7) simpleGrading (1 1 1)
	hex (174 175 176 173 184 185 186 183) rotatingZone (10 10 7) simpleGrading (1 1 1)
	hex (181 188 189 180 191 198 199 190) rotatingZone (10 10 7) simpleGrading (1 1 1)
	hex (182 187 188 181 192 197 198 191) rotatingZone (10 10 7) simpleGrading (1 1 1)
	hex (183 186 187 182 193 196 197 192) rotatingZone (10 10 7) simpleGrading (1 1 1)
	hex (184 185 186 183 194 195 196 193) rotatingZone (10 10 7) simpleGrading (1 1 1)
	hex (191 198 199 190 201 208 209 200) rotatingZone (10 10 7) simpleGrading (1 1 1)
	hex (192 197 198 191 202 207 208 201) rotatingZone (10 10 7) simpleGrading (1 1 1)
	hex (193 196 197 192 203 206 207 202) rotatingZone (10 10 7) simpleGrading (1 1 1)
	hex (194 195 196 193 204 205 206 203) rotatingZone (10 10 7) simpleGrading (1 1 1)
	hex (201 208 209 200 211 218 219 210) rotatingZone (10 10 7) simpleGrading (1 1 1)
	hex (202 207 208 201 212 217 218 211) rotatingZone (10 10 7) simpleGrading (1 1 1)
	hex (203 206 207 202 213 216 217 212) rotatingZone (10 10 7) simpleGrading (1 1 1)
	hex (204 205 206 203 214 215 216 213) rotatingZone (10 10 7) simpleGrading (1 1 1)
	hex (211 218 219 210 221 228 229 220) rotatingZone (10 10 7) simpleGrading (1 1 1)
	hex (212 217 218 211 222 227 228 221) rotatingZone (10 10 7) simpleGrading (1 1 1)
	hex (213 216 217 212 223 226 227 222) rotatingZone (10 10 7) simpleGrading (1 1 1)
	hex (214 215 216 213 224 225 226 223) rotatingZone (10 10 7) simpleGrading (1 1 1)
	hex (221 228 229 220 231 238 239 230) rotatingZone (10 10 7) simpleGrading (1 1 1)
	hex (222 227 228 221 232 237 238 231) rotatingZone (10 10 7) simpleGrading (1 1 1)
	hex (223 226 227 222 233 236 237 232) rotatingZone (10 10 7) simpleGrading (1 1 1)
	hex (224 225 226 223 234 235 236 233) rotatingZone (10 10 7) simpleGrading (1 1 1)
	hex (231 238 239 230 241 248 249 240) rotatingZone (10 10 7) simpleGrading (1 1 1)
	hex (232 237 238 231 242 247 248 241) rotatingZone (10 10 7) simpleGrading (1 1 1)
	hex (233 236 237 232 243 246 247 242) rotatingZone (10 10 7) simpleGrading (1 1 1)
	hex (234 235 236 233 244 245 246 243) rotatingZone (10 10 7) simpleGrading (1 1 1)
	hex (241 248 249 240 251 258 259 250) rotatingZone (10 10 7) simpleGrading (1 1 1)
	hex (242 247 248 241 252 257 258 251) rotatingZone (10 10 7) simpleGrading (1 1 1)
	hex (243 246 247 242 253 256 257 252) rotatingZone (10 10 7) simpleGrading (1 1 1)
	hex (244 245 246 243 254 255 256 253) rotatingZone (10 10 7) simpleGrading (1 1 1)
	hex (251 258 259 250 261 268 269 260) rotatingZone (10 10 7) simpleGrading (1 1 1)
	hex (252 257 258 251 262 267 268 261) rotatingZone (10 10 7) simpleGrading (1 1 1)
	hex (253 256 257 252 263 266 267 262) rotatingZone (10 10 7) simpleGrading (1 1 1)
	hex (254 255 256 253 264 265 266 263) rotatingZone (10 10 7) simpleGrading (1 1 1)
	hex (261 268 269 260 271 278 279 270) rotatingZone (10 10 3) simpleGrading (1 1 1)
	hex (262 267 268 261 272 277 278 271) rotatingZone (10 10 3) simpleGrading (1 1 1)
	hex (263 266 267 262 273 276 277 272) rotatingZone (10 10 3) simpleGrading (1 1 1)
	hex (264 265 266 263 274 275 276 273) rotatingZone (10 10 3) simpleGrading (1 1 1)
	hex (8 1 0 9 146 143 144 145) rotatingZone (10 10 14) simpleGrading (1 1 1)
	hex (7 2 1 8 147 142 143 146) rotatingZone (10 10 14) simpleGrading (1 1 1)
	hex (6 3 2 7 148 141 142 147) rotatingZone (10 10 14) simpleGrading (1 1 1)
	hex (5 4 3 6 149 140 141 148) rotatingZone (10 10 14) simpleGrading (1 1 1)
);

edges
(
	BSpline 1 0
	(
		(0.071 0.0826 0.5004)
		(0.0831 0.0704 0.5004)
		(0.0932 0.0564 0.5004)
		(0.101 0.0409 0.5004)
	)
	BSpline 2 1
	(
		(0.0086 0.1086 0.5004)
		(0.0255 0.1059 0.5004)
		(0.0418 0.1006 0.5004)
	)
	BSpline 3 2
	(
		(-0.0418 0.1006 0.5004)
		(-0.0255 0.1059 0.5004)
	)
	BSpline 4 3
	(
		(-0.101 0.0409 0.5004)
		(-0.0932 0.0564 0.5004)
		(-0.0831 0.0704 0.5004)
		(-0.071 0.0826 0.5004)
	)
	BSpline 6 5
	(
		(-0.071 -0.0826 0.5004)
		(-0.0831 -0.0704 0.5004)
		(-0.0932 -0.0564 0.5004)
		(-0.101 -0.0409 0.5004)
		(-0.1063 -0.0238 0.5004)
	)
	BSpline 7 6
	(
		(-0.0086 -0.1086 0.5004)
		(-0.0255 -0.1059 0.5004)
		(-0.0418 -0.1006 0.5004)
	)
	BSpline 8 7
	(
		(0.0418 -0.1006 0.5004)
		(0.0255 -0.1059 0.5004)
	)
	BSpline 9 8
	(
		(0.1063 -0.0238 0.5004)
		(0.101 -0.0409 0.5004)
		(0.0932 -0.0564 0.5004)
		(0.0831 -0.0704 0.5004)
		(0.071 -0.0826 0.5004)
	)
	BSpline 11 10
	(
		(0.353 0.156 1.251)
		(0.3939 0.1628 1.251)
		(0.4281 0.1679 1.251)
		(0.4547 0.1719 1.251)
	)
	BSpline 12 11
	(
		(0.1994 0.1313 1.251)
		(0.2546 0.1399 1.251)
	)
	BSpline 13 12
	(
		(0.0312 0.0916 1.251)
		(0.0852 0.1099 1.251)
	)
	BSpline 14 13
	(
		(-0.203 -0.0593 1.251)
		(-0.1904 -0.0418 1.251)
		(-0.1698 -0.0217 1.251)
		(-0.1417 0.0003 1.251)
		(-0.1068 0.0236 1.251)
		(-0.0656 0.0471 1.251)
	)
	BSpline 16 15
	(
		(-0.0673 -0.0859 1.251)
		(-0.1099 -0.088 1.251)
		(-0.1462 -0.0873 1.251)
		(-0.1748 -0.0851 1.251)
		(-0.1951 -0.0815 1.251)
	)
	BSpline 17 16
	(
		(0.0838 -0.0543 1.251)
		(0.0314 -0.0707 1.251)
	)
	BSpline 18 17
	(
		(0.2338 0.0353 1.251)
		(0.1854 0.0017 1.251)
	)
	BSpline 19 18
	(
		(0.4562 0.166 1.251)
		(0.4322 0.1558 1.251)
		(0.4016 0.1407 1.251)
		(0.3653 0.1209 1.251)
		(0.3247 0.0962 1.251)
	)
	BSpline 21 20
	(
		(0.3548 0.1097 1.5845)
		(0.3945 0.1108 1.5845)
		(0.4277 0.1114 1.5845)
	)
	BSpline 22 21
	(
		(0.2055 0.1011 1.5845)
		(0.2591 0.1047 1.5845)
	)
	BSpline 23 22
	(
		(-0.01 0.0683 1.5845)
		(0.0407 0.0829 1.5845)
		(0.0942 0.094 1.5845)
	)
	BSpline 24 23
	(
		(-0.2 -0.033 1.5845)
		(-0.186 -0.018 1.5845)
		(-0.164 -0.0013 1.5845)
		(-0.1347 0.0163 1.5845)
		(-0.0987 0.0344 1.5845)
	)
	BSpline 26 25
	(
		(-0.0738 -0.0735 1.5845)
		(-0.1146 -0.0706 1.5845)
		(-0.1491 -0.0658 1.5845)
		(-0.1761 -0.0604 1.5845)
		(-0.195 -0.0548 1.5845)
	)
	BSpline 27 26
	(
		(0.0739 -0.0609 1.5845)
		(0.0221 -0.0705 1.5845)
	)
	BSpline 28 27
	(
		(0.2273 0.007 1.5845)
		(0.1772 -0.0194 1.5845)
	)
	BSpline 29 28
	(
		(0.4303 0.0984 1.5845)
		(0.3994 0.0877 1.5845)
		(0.3626 0.0732 1.5845)
		(0.321 0.0544 1.5845)
	)
	BSpline 31 30
	(
		(0.3447 0.0741 1.9181)
		(0.3825 0.073 1.9181)
		(0.4141 0.072 1.9181)
	)
	BSpline 32 31
	(
		(0.2026 0.0803 1.9181)
		(0.2536 0.0779 1.9181)
	)
	BSpline 33 32
	(
		(-0.0043 0.0656 1.9181)
		(0.0449 0.0756 1.9181)
		(0.0965 0.082 1.9181)
	)
	BSpline 34 33
	(
		(-0.1923 -0.0161 1.9181)
		(-0.1778 -0.0029 1.9181)
		(-0.1557 0.0112 1.9181)
		(-0.1265 0.0257 1.9181)
		(-0.091 0.0401 1.9181)
	)
	BSpline 36 35
	(
		(-0.0756 -0.0642 1.9181)
		(-0.1141 -0.0582 1.9181)
		(-0.1464 -0.0511 1.9181)
		(-0.1717 -0.0439 1.9181)
		(-0.1891 -0.0371 1.9181)
	)
	BSpline 37 36
	(
		(0.0655 -0.0634 1.9181)
		(0.0156 -0.0686 1.9181)
	)
	BSpline 38 37
	(
		(0.2161 -0.0106 1.9181)
		(0.1667 -0.0318 1.9181)
	)
	BSpline 39 38
	(
		(0.4157 0.0607 1.9181)
		(0.3855 0.0529 1.9181)
		(0.3495 0.0418 1.9181)
		(0.3086 0.0272 1.9181)
	)
	BSpline 41 40
	(
		(0.3311 0.0561 2.2517)
		(0.367 0.0526 2.2517)
		(0.3969 0.049 2.2517)
	)
	BSpline 42 41
	(
		(0.1464 0.071 2.2517)
		(0.1965 0.0659 2.2517)
		(0.2448 0.0617 2.2517)
	)
	BSpline 43 42
	(
		(-0.0007 0.0625 2.2517)
		(0.0465 0.0695 2.2517)
	)
	BSpline 44 43
	(
		(-0.1834 -0.0055 2.2517)
		(-0.169 0.0063 2.2517)
		(-0.1473 0.0186 2.2517)
		(-0.1188 0.0308 2.2517)
		(-0.0844 0.0427 2.2517)
	)
	BSpline 46 45
	(
		(-0.075 -0.0571 2.2517)
		(-0.1113 -0.0495 2.2517)
		(-0.1417 -0.0411 2.2517)
		(-0.1653 -0.033 2.2517)
		(-0.1815 -0.0256 2.2517)
	)
	BSpline 47 46
	(
		(0.059 -0.0636 2.2517)
		(0.0113 -0.0659 2.2517)
	)
	BSpline 48 47
	(
		(0.2047 -0.0211 2.2517)
		(0.1567 -0.0388 2.2517)
	)
	BSpline 49 48
	(
		(0.3978 0.037 2.2517)
		(0.3688 0.0305 2.2517)
		(0.3341 0.0219 2.2517)
		(0.2944 0.0093 2.2517)
	)
	BSpline 51 50
	(
		(0.3151 0.0391 2.5853)
		(0.3489 0.0349 2.5853)
		(0.3771 0.0309 2.5853)
	)
	BSpline 52 51
	(
		(0.1409 0.0622 2.5853)
		(0.1882 0.0558 2.5853)
		(0.2337 0.0495 2.5853)
	)
	BSpline 53 52
	(
		(0.0014 0.0592 2.5853)
		(0.0463 0.0642 2.5853)
	)
	BSpline 54 53
	(
		(-0.1737 0.001 2.5853)
		(-0.1597 0.0117 2.5853)
		(-0.1387 0.0226 2.5853)
		(-0.1114 0.0332 2.5853)
		(-0.0784 0.0433 2.5853)
	)
	BSpline 56 55
	(
		(-0.0729 -0.0515 2.5853)
		(-0.107 -0.0431 2.5853)
		(-0.1354 -0.0341 2.5853)
		(-0.1575 -0.0257 2.5853)
		(-0.1726 -0.0181 2.5853)
	)
	BSpline 57 56
	(
		(0.0537 -0.0621 2.5853)
		(0.0085 -0.0627 2.5853)
	)
	BSpline 58 57
	(
		(0.193 -0.0268 2.5853)
		(0.1469 -0.0419 2.5853)
	)
	BSpline 59 58
	(
		(0.3776 0.022 2.5853)
		(0.35 0.0171 2.5853)
		(0.3168 0.0094 2.5853)
		(0.2789 -0.0007 2.5853)
	)
	BSpline 61 60
	(
		(0.2617 0.0366 2.9189)
		(0.2982 0.0312 2.9189)
		(0.33 0.0262 2.9189)
		(0.3565 0.0215 2.9189)
	)
	BSpline 62 61
	(
		(0.1343 0.0555 2.9189)
		(0.1788 0.0491 2.9189)
	)
	BSpline 63 62
	(
		(0.0027 0.0558 2.9189)
		(0.0452 0.0595 2.9189)
	)
	BSpline 64 63
	(
		(-0.1639 0.0049 2.9189)
		(-0.1504 0.0147 2.9189)
		(-0.1304 0.0245 2.9189)
		(-0.1044 0.0339 2.9189)
		(-0.073 0.0426 2.9189)
	)
	BSpline 66 65
	(
		(-0.07 -0.0469 2.9189)
		(-0.1019 -0.0382 2.9189)
		(-0.1286 -0.0291 2.9189)
		(-0.1492 -0.0206 2.9189)
		(-0.1633 -0.0131 2.9189)
	)
	BSpline 67 66
	(
		(0.0492 -0.0598 2.9189)
		(0.0066 -0.0594 2.9189)
	)
	BSpline 68 67
	(
		(0.1814 -0.0298 2.9189)
		(0.1376 -0.0429 2.9189)
	)
	BSpline 69 68
	(
		(0.3568 0.0127 2.9189)
		(0.3306 0.0087 2.9189)
		(0.2991 0.0019 2.9189)
		(0.2631 -0.0067 2.9189)
	)
	BSpline 71 70
	(
		(0.2468 0.0289 3.2525)
		(0.2809 0.0232 3.2525)
		(0.3108 0.0182 3.2525)
		(0.3356 0.0137 3.2525)
	)
	BSpline 72 71
	(
		(0.1272 0.0501 3.2525)
		(0.1689 0.0426 3.2525)
	)
	BSpline 73 72
	(
		(0.0034 0.0524 3.2525)
		(0.0434 0.0552 3.2525)
	)
	BSpline 74 73
	(
		(-0.1541 0.0072 3.2525)
		(-0.1412 0.0162 3.2525)
		(-0.1222 0.0251 3.2525)
		(-0.0976 0.0335 3.2525)
		(-0.068 0.0412 3.2525)
	)
	BSpline 76 75
	(
		(-0.0665 -0.043 3.2525)
		(-0.0965 -0.0343 3.2525)
		(-0.1214 -0.0253 3.2525)
		(-0.1406 -0.017 3.2525)
		(-0.1538 -0.0098 3.2525)
	)
	BSpline 77 76
	(
		(0.0453 -0.0571 3.2525)
		(0.0053 -0.056 3.2525)
	)
	BSpline 78 77
	(
		(0.1702 -0.0308 3.2525)
		(0.1288 -0.0425 3.2525)
	)
	BSpline 79 78
	(
		(0.3358 0.005 3.2525)
		(0.3111 0.0019 3.2525)
		(0.2814 -0.0031 3.2525)
		(0.2474 -0.0104 3.2525)
	)
	BSpline 81 80
	(
		(0.2314 0.0244 3.5861)
		(0.2634 0.0187 3.5861)
		(0.2913 0.0137 3.5861)
		(0.3145 0.0092 3.5861)
	)
	BSpline 82 81
	(
		(0.1197 0.0455 3.5861)
		(0.1587 0.0381 3.5861)
	)
	BSpline 83 82
	(
		(0.0038 0.0491 3.5861)
		(0.0413 0.0513 3.5861)
	)
	BSpline 84 83
	(
		(-0.1442 0.0084 3.5861)
		(-0.1321 0.0167 3.5861)
		(-0.1142 0.0248 3.5861)
		(-0.0911 0.0324 3.5861)
		(-0.0632 0.0394 3.5861)
	)
	BSpline 86 85
	(
		(-0.0628 -0.0396 3.5861)
		(-0.0907 -0.0311 3.5861)
		(-0.114 -0.0224 3.5861)
		(-0.1319 -0.0144 3.5861)
		(-0.1441 -0.0075 3.5861)
	)
	BSpline 87 86
	(
		(0.0418 -0.0539 3.5861)
		(0.0043 -0.0525 3.5861)
	)
	BSpline 88 87
	(
		(0.1591 -0.0307 3.5861)
		(0.1202 -0.0412 3.5861)
	)
	BSpline 89 88
	(
		(0.3145 0.001 3.5861)
		(0.2914 -0.0016 3.5861)
		(0.2635 -0.0059 3.5861)
		(0.2316 -0.0124 3.5861)
	)
	BSpline 91 90
	(
		(0.2162 0.0208 3.9197)
		(0.2459 0.0152 3.9197)
		(0.2719 0.0103 3.9197)
		(0.2935 0.0058 3.9197)
	)
	BSpline 92 91
	(
		(0.1121 0.0414 3.9197)
		(0.1484 0.0342 3.9197)
	)
	BSpline 93 92
	(
		(0.004 0.0457 3.9197)
		(0.039 0.0475 3.9197)
	)
	BSpline 94 93
	(
		(-0.1345 0.0091 3.9197)
		(-0.1231 0.0167 3.9197)
		(-0.1064 0.0241 3.9197)
		(-0.0847 0.0311 3.9197)
		(-0.0587 0.0373 3.9197)
	)
	BSpline 96 95
	(
		(-0.0589 -0.0364 3.9197)
		(-0.0849 -0.0282 3.9197)
		(-0.1065 -0.0199 3.9197)
		(-0.1232 -0.0123 3.9197)
		(-0.1346 -0.0058 3.9197)
	)
	BSpline 97 96
	(
		(0.0386 -0.0507 3.9197)
		(0.0036 -0.049 3.9197)
	)
	BSpline 98 97
	(
		(0.1482 -0.0301 3.9197)
		(0.1118 -0.0395 3.9197)
	)
	BSpline 99 98
	(
		(0.2935 -0.002 3.9197)
		(0.2719 -0.0045 3.9197)
		(0.2458 -0.0079 3.9197)
		(0.216 -0.0136 3.9197)
	)
	BSpline 101 100
	(
		(0.2008 0.0175 4.2533)
		(0.2283 0.0121 4.2533)
		(0.2524 0.0074 4.2533)
		(0.2725 0.003 4.2533)
	)
	BSpline 102 101
	(
		(0.1043 0.0376 4.2533)
		(0.138 0.0305 4.2533)
	)
	BSpline 103 102
	(
		(0.004 0.0424 4.2533)
		(0.0365 0.0437 4.2533)
	)
	BSpline 104 103
	(
		(-0.1247 0.0095 4.2533)
		(-0.1141 0.0165 4.2533)
		(-0.0985 0.0232 4.2533)
		(-0.0784 0.0295 4.2533)
		(-0.0541 0.0351 4.2533)
	)
	BSpline 106 105
	(
		(-0.055 -0.0333 4.2533)
		(-0.079 -0.0255 4.2533)
		(-0.099 -0.0176 4.2533)
		(-0.1144 -0.0104 4.2533)
		(-0.1249 -0.0043 4.2533)
	)
	BSpline 107 106
	(
		(0.0354 -0.0473 4.2533)
		(0.0029 -0.0455 4.2533)
	)
	BSpline 108 107
	(
		(0.1373 -0.0291 4.2533)
		(0.1034 -0.0376 4.2533)
	)
	BSpline 109 108
	(
		(0.2724 -0.0047 4.2533)
		(0.2523 -0.0064 4.2533)
		(0.2281 -0.0092 4.2533)
		(0.2004 -0.0144 4.2533)
	)
	BSpline 111 110
	(
		(0.1852 0.0152 4.5868)
		(0.2106 0.0097 4.5868)
		(0.2328 0.0051 4.5868)
		(0.2512 0.0008 4.5868)
	)
	BSpline 112 111
	(
		(0.0965 0.0338 4.5868)
		(0.1275 0.0271 4.5868)
	)
	BSpline 113 112
	(
		(0.004 0.0391 4.5868)
		(0.034 0.0401 4.5868)
	)
	BSpline 114 113
	(
		(-0.1149 0.0097 4.5868)
		(-0.1051 0.0161 4.5868)
		(-0.0906 0.0222 4.5868)
		(-0.072 0.0278 4.5868)
		(-0.0496 0.0327 4.5868)
	)
	BSpline 116 115
	(
		(-0.0509 -0.0303 4.5868)
		(-0.0731 -0.0229 4.5868)
		(-0.0914 -0.0155 4.5868)
		(-0.1056 -0.0087 4.5868)
		(-0.1152 -0.003 4.5868)
	)
	BSpline 117 116
	(
		(0.0323 -0.0439 4.5868)
		(0.0024 -0.042 4.5868)
	)
	BSpline 118 117
	(
		(0.1263 -0.0279 4.5868)
		(0.095 -0.0354 4.5868)
	)
	BSpline 119 118
	(
		(0.251 -0.006 4.5868)
		(0.2325 -0.0078 4.5868)
		(0.2102 -0.0103 4.5868)
		(0.1846 -0.0148 4.5868)
	)
	BSpline 121 120
	(
		(0.1697 0.012 4.9204)
		(0.1929 0.007 4.9204)
		(0.2131 0.0027 4.9204)
		(0.23 -0.0012 4.9204)
	)
	BSpline 122 121
	(
		(0.0886 0.0302 4.9204)
		(0.1169 0.0238 4.9204)
	)
	BSpline 123 122
	(
		(0.004 0.0357 4.9204)
		(0.0314 0.0364 4.9204)
	)
	BSpline 124 123
	(