// * * * * * * * * * * * * * * * * * * * * * * * * * * * * * * * * * * * * * //
FoamFile
{
	version     2.0;
	format      ascii;
	class       dictionary;
	object      blockMeshDict;
}
// * * * * * * * * * * * * * * * * * * * * * * * * * * * * * * * * * * * * * //
convertToMeters 1;

vertices
(
	(1.8411   	0.0223   	3.5297)		//0
	(1.0933   	1.4819   	3.8282)		//1
	(-0.8319   	1.6428   	3.9075)		//2
	(-1.6414   	0.835   	3.6364)		//3
	(-1.841   	-0.0223   	3.5297)		//4
	(-1.6559   	-0.8049   	3.6286)		//5
	(-0.8463   	-1.6353   	3.9031)		//6
	(1.3005   	-1.3037   	3.7654)		//7
	(3   	0   	3.5297)		//8
	(3   	3   	3.5297)		//9
	(-1.0   	3   	3.5297)		//10
	(-3   	3   	3.5297)		//11
	(-3   	0   	3.5297)		//12
	(-3   	-3   	3.5297)		//13
	(-1.0   	-3   	3.5297)		//14
	(3   	-3   	3.5297)		//15
	(1.9954   	0.0407   	5.5245)		//16
	(1.215   	1.5641   	5.5245)		//17
	(-0.7944   	1.7322   	5.5245)		//18
	(-1.6394   	0.889   	5.5245)		//19
	(-1.8478   	-0.0058   	5.5245)		//20
	(-1.6546   	-0.8227   	5.5245)		//21
	(-0.8096   	-1.6894   	5.5245)		//22
	(1.4312   	-1.3433   	5.5245)		//23
	(3   	0   	5.5245)		//24
	(3   	3   	5.5245)		//25
	(-1.0   	3   	5.5245)		//26
	(-3   	3   	5.5245)		//27
	(-3   	0   	5.5245)		//28
	(-3   	-3   	5.5245)		//29
	(-1.0   	-3   	5.5245)		//30
	(3   	-3   	5.5245)		//31
	(2.2218   	0.0601   	8.1823)		//32
	(1.3795   	1.7042   	8.1823)		//33
	(-0.7891   	1.8856   	8.1823)		//34
	(-1.701   	0.9756   	8.1823)		//35
	(-1.9259   	0.0099   	8.1823)		//36
	(-1.7174   	-0.8717   	8.1823)		//37
	(-0.8054   	-1.8071   	8.1823)		//38
	(1.6129   	-1.4336   	8.1823)		//39
	(3   	0   	8.1823)		//40
	(3   	3   	8.1823)		//41
	(-1.0   	3   	8.1823)		//42
	(-3   	3   	8.1823)		//43
	(-3   	0   	8.1823)		//44
	(-3   	-3   	8.1823)		//45
	(-1.0   	-3   	8.1823)		//46
	(3   	-3   	8.1823)		//47
	(2.4622   	0.5824   	11.726)		//48
	(1.6243   	0.6768   	11.726)		//49
	(-0.8048   	0.7044   	11.726)		//50
	(-1.7834   	0.1782   	11.726)		//51
	(-1.9738   	-0.2051   	11.726)		//52
	(-1.7067   	-0.8529   	11.726)		//53
	(-0.6923   	-1.1586   	11.726)		//54
	(1.7116   	0.308   	11.726)		//55
	(3   	0   	11.726)		//56
	(3   	3   	11.726)		//57
	(-1.0   	3   	11.726)		//58
	(-3   	3   	11.726)		//59
	(-3   	0   	11.726)		//60
	(-3   	-3   	11.726)		//61
	(-1.0   	-3   	11.726)		//62
	(3   	-3   	11.726)		//63
	(2.551   	0.497   	15.565)		//64
	(1.7092   	0.5714   	15.565)		//65
	(-0.7447   	0.5658   	15.565)		//66
	(-1.7655   	0.094   	15.565)		//67
	(-1.9993   	-0.4374   	15.565)		//68
	(-1.7597   	-0.7574   	15.565)		//69
	(-0.7362   	-1.0926   	15.565)		//70
	(1.7717   	0.2677   	15.565)		//71
	(3   	0   	15.565)		//72
	(3   	3   	15.565)		//73
	(-1.0   	3   	15.565)		//74
	(-3   	3   	15.565)		//75
	(-3   	0   	15.565)		//76
	(-3   	-3   	15.565)		//77
	(-1.0   	-3   	15.565)		//78
	(3   	-3   	15.565)		//79
	(2.4278   	0.3851   	19.9947)		//80
	(1.623   	0.4741   	19.9947)		//81
	(-0.7285   	0.5201   	19.9947)		//82
	(-1.7193   	0.0946   	19.9947)		//83
	(-1.9582   	-0.4001   	19.9947)		//84
	(-1.7375   	-0.7065   	19.9947)		//85
	(-0.7644   	-1.0519   	19.9947)		//86
	(1.6746   	0.1858   	19.9947)		//87
	(3   	0   	19.9947)		//88
	(3   	3   	19.9947)		//89
	(-1.0   	3   	19.9947)		//90
	(-3   	3   	19.9947)		//91
	(-3   	0   	19.9947)		//92
	(-3   	-3   	19.9947)		//93
	(-1.0   	-3   	19.9947)		//94
	(3   	-3   	19.9947)		//95
	(2.2824   	0.2935   	24.129)		//96
	(1.5204   	0.3769   	24.129)		//97
	(-0.7072   	0.3968   	24.129)		//98
	(-1.6587   	0.009   	24.129)		//99
	(-1.9098   	-0.3696   	24.129)		//100
	(-1.7154   	-0.603   	24.129)		//101
	(-0.5092   	-0.8543   	24.129)		//102
	(1.5555   	0.1549   	24.129)		//103
	(3   	0   	24.129)		//104
	(3   	3   	24.129)		//105
	(-1.0   	3   	24.129)		//106
	(-3   	3   	24.129)		//107
	(-3   	0   	24.129)		//108
	(-3   	-3   	24.129)		//109
	(-1.0   	-3   	24.129)		//110
	(3   	-3   	24.129)		//111
	(2.1233   	0.2078   	27.968)		//112
	(1.4038   	0.2998   	27.968)		//113
	(-0.7007   	0.3361   	27.968)		//114
	(-1.6067   	-0.0266   	27.968)		//115
	(-1.8567   	-0.3411   	27.968)		//116
	(-1.6812   	-0.5365   	27.968)		//117
	(-0.5623   	-0.6664   	27.968)		//118
	(1.4275   	0.1283   	27.968)		//119
	(3   	0   	27.968)		//120
	(3   	3   	27.968)		//121
	(-1.0   	3   	27.968)		//122
	(-3   	3   	27.968)		//123
	(-3   	0   	27.968)		//124
	(-3   	-3   	27.968)		//125
	(-1.0   	-3   	27.968)		//126
	(3   	-3   	27.968)		//127
	(1.9246   	0.1138   	32.3977)		//128
	(1.2572   	0.2151   	32.3977)		//129
	(-0.6999   	0.2932   	32.3977)		//130
	(-1.5506   	-0.0248   	32.3977)		//131
	(-1.7905   	-0.3097   	32.3977)		//132
	(-1.6318   	-0.4921   	32.3977)		//133
	(-0.5947   	-0.6289   	32.3977)		//134
	(1.2752   	0.0566   	32.3977)		//135
	(3   	0   	32.3977)		//136
	(3   	3   	32.3977)		//137
	(-1.0   	3   	32.3977)		//138
	(-3   	3   	32.3977)		//139
	(-3   	0   	32.3977)		//140
	(-3   	-3   	32.3977)		//141
	(-1.0   	-3   	32.3977)		//142
	(3   	-3   	32.3977)		//143
	(1.7582   	0.0436   	36.2367)		//144
	(1.1338   	0.1514   	36.2367)		//145
	(-0.6992   	0.2425   	36.2367)		//146
	(-1.5039   	-0.0336   	36.2367)		//147
	(-1.735   	-0.2863   	36.2367)		//148
	(-1.5942   	-0.4101   	36.2367)		//149
	(-0.6298   	-0.4918   	36.2367)		//150
	(1.1485   	-0.0039   	36.2367)		//151
	(3   	0   	36.2367)		//152
	(3   	3   	36.2367)		//153
	(-1.0   	3   	36.2367)		//154
	(-3   	3   	36.2367)		//155
	(-3   	0   	36.2367)		//156
	(-3   	-3   	36.2367)		//157
	(-1.0   	-3   	36.2367)		//158
	(3   	-3   	36.2367)		//159
	(1.5772   	-0.0242   	40.371)		//160
	(0.9992   	0.0879   	40.371)		//161
	(-0.7021   	0.2072   	40.371)		//162
	(-1.5666   	-0.1058   	40.371)		//163
	(-1.6747   	-0.2637   	40.371)		//164
	(-1.5464   	-0.3799   	40.371)		//165
	(-0.6521   	-0.4724   	40.371)		//166
	(1.0098   	-0.0568   	40.371)		//167
	(3   	0   	40.371)		//168
	(3   	3   	40.371)		//169
	(-1.0   	3   	40.371)		//170
	(-3   	3   	40.371)		//171
	(-3   	0   	40.371)		//172
	(-3   	-3   	40.371)		//173
	(-1.0   	-3   	40.371)		//174
	(3   	-3   	40.371)		//175
	(1.3944   	-0.0802   	44.5053)		//176
	(0.8626   	0.029   	44.5053)		//177
	(-0.7059   	0.1494   	44.5053)		//178
	(-1.5104   	-0.1153   	44.5053)		//179
	(-1.6138   	-0.2451   	44.5053)		//180
	(-1.4984   	-0.3338   	44.5053)		//181
	(-0.6767   	-0.383   	44.5053)		//182
	(0.8706   	-0.1177   	44.5053)		//183
	(3   	0   	44.5053)		//184
	(3   	3   	44.5053)		//185
	(-1.0   	3   	44.5053)		//186
	(-3   	3   	44.5053)		//187
	(-3   	0   	44.5053)		//188
	(-3   	-3   	44.5053)		//189
	(-1.0   	-3   	44.5053)		//190
	(3   	-3   	44.5053)		//191
	(1.21   	-0.1198   	48.6397)		//192
	(0.7235   	-0.0128   	48.6397)		//193
	(-0.7141   	0.1179   	48.6397)		//194
	(-1.4557   	-0.1142   	48.6397)		//195
	(-1.5523   	-0.2318   	48.6397)		//196
	(-1.4476   	-0.3146   	48.6397)		//197
	(-0.6943   	-0.3699   	48.6397)		//198
	(0.729   	-0.1476   	48.6397)		//199
	(3   	0   	48.6397)		//200
	(3   	3   	48.6397)		//201
	(-1.0   	3   	48.6397)		//202
	(-3   	3   	48.6397)		//203
	(-3   	0   	48.6397)		//204
	(-3   	-3   	48.6397)		//205
	(-1.0   	-3   	48.6397)		//206
	(3   	-3   	48.6397)		//207
	(1.0382   	-0.1513   	52.4787)		//208
	(0.5936   	-0.0474   	52.4787)		//209
	(-0.7226   	0.0894   	52.4787)		//210
	(-1.4051   	-0.1147   	52.4787)		//211
	(-1.495   	-0.2213   	52.4787)		//212
	(-1.4   	-0.2984   	52.4787)		//213
	(-0.7103   	-0.358   	52.4787)		//214
	(0.597   	-0.1711   	52.4787)		//215
	(3   	0   	52.4787)		//216
	(3   	3   	52.4787)		//217
	(-1.0   	3   	52.4787)		//218
	(-3   	3   	52.4787)		//219
	(-3   	0   	52.4787)		//220
	(-3   	-3   	52.4787)		//221
	(-1.0   	-3   	52.4787)		//222
	(3   	-3   	52.4787)		//223
	(0.8793   	-0.1768   	56.0224)		//224
	(0.4731   	-0.0767   	56.0224)		//225
	(-0.731   	0.0632   	56.0224)		//226
	(-1.3585   	-0.1162   	56.0224)		//227
	(-1.4421   	-0.2129   	56.0224)		//228
	(-1.3559   	-0.2845   	56.0224)		//229
	(-0.7247   	-0.3467   	56.0224)		//230
	(0.4749   	-0.19   	56.0224)		//231
	(3   	0   	56.0224)		//232
	(3   	3   	56.0224)		//233
	(-1.0   	3   	56.0224)		//234
	(-3   	3   	56.0224)		//235
	(-3   	0   	56.0224)		//236
	(-3   	-3   	56.0224)		//237
	(-1.0   	-3   	56.0224)		//238
	(3   	-3   	56.0224)		//239
	(0.6889   	-0.194   	58.9755)		//240
	(0.328   	-0.1015   	58.9755)		//241
	(-0.7432   	0.0329   	58.9755)		//242
	(-1.3034   	-0.1217   	58.9755)		//243
	(-1.3786   	-0.2071   	58.9755)		//244
	(-1.3025   	-0.2716   	58.9755)		//245
	(-0.7408   	-0.3322   	58.9755)		//246
	(0.3286   	-0.2024   	58.9755)		//247
	(3   	0   	58.9755)		//248
	(3   	3   	58.9755)		//249
	(-1.0   	3   	58.9755)		//250
	(-3   	3   	58.9755)		//251
	(-3   	0   	58.9755)		//252
	(-3   	-3   	58.9755)		//253
	(-1.0   	-3   	58.9755)		//254
	(3   	-3   	58.9755)		//255
	(0.2025   	-0.2019   	61.6333)		//256
	(-0.0449   	-0.1373   	61.6333)		//257
	(-0.7796   	-0.0417   	61.6333)		//258
	(-1.1646   	-0.1461   	61.6333)		//259
	(-1.2165   	-0.2045   	61.6333)		//260
	(-1.1644   	-0.249   	61.6333)		//261
	(-0.7792   	-0.2923   	61.6333)		//262
	(-0.0448   	-0.2066   	61.6333)		//263
	(3   	0   	61.6333)		//264
	(3   	3   	61.6333)		//265
	(-1.0   	3   	61.6333)		//266
	(-3   	3   	61.6333)		//267
	(-3   	0   	61.6333)		//268
	(-3   	-3   	61.6333)		//269
	(-1.0   	-3   	61.6333)		//270
	(3   	-3   	61.6333)		//271
	(2.0   	0.0   	65.0)		//272
	(1.4142   	1.4142   	65.0)		//273
	(-0.7654   	1.8478   	65.0)		//274
	(-1.8478   	0.7654   	65.0)		//275
	(-2.0   	-0.0   	65.0)		//276
	(-1.8478   	-0.7654   	65.0)		//277
	(-0.7654   	-1.8478   	65.0)		//278
	(1.4142   	-1.4142   	65.0)		//279
	(3   	0   	65.0)		//280
	(3   	3   	65.0)		//281
	(-1.0   	3   	65.0)		//282
	(-3   	3   	65.0)		//283
	(-3   	0   	65.0)		//284
	(-3   	-3   	65.0)		//285
	(-1.0   	-3   	65.0)		//286
	(3   	-3   	65.0)		//287
);

blocks
(
	hex (1 0 8 9 17 16 24 25) rotatingZone (6 15 10) simpleGrading (1 30 1)
	hex (2 1 9 10 18 17 25 26) rotatingZone (8 15 10) simpleGrading (1 30 1)
	hex (3 2 10 11 19 18 26 27) rotatingZone (4 15 10) simpleGrading (1 30 1)
	hex (4 3 11 12 20 19 27 28) rotatingZone (6 15 10) simpleGrading (1 30 1)
	hex (5 4 12 13 21 20 28 29) rotatingZone (6 15 10) simpleGrading (1 30 1)
	hex (6 5 13 14 22 21 29 30) rotatingZone (4 15 10) simpleGrading (1 30 1)
	hex (7 6 14 15 23 22 30 31) rotatingZone (8 15 10) simpleGrading (1 30 1)
	hex (0 7 15 8 16 23 31 24) rotatingZone (6 15 10) simpleGrading (1 30 1)
	hex (17 16 24 25 33 32 40 41) rotatingZone (6 15 10) simpleGrading (1 30 1)
	hex (18 17 25 26 34 33 41 42) rotatingZone (8 15 10) simpleGrading (1 30 1)
	hex (19 18 26 27 35 34 42 43) rotatingZone (4 15 10) simpleGrading (1 30 1)
	hex (20 19 27 28 36 35 43 44) rotatingZone (6 15 10) simpleGrading (1 30 1)
	hex (21 20 28 29 37 36 44 45) rotatingZone (6 15 10) simpleGrading (1 30 1)
	hex (22 21 29 30 38 37 45 46) rotatingZone (4 15 10) simpleGrading (1 30 1)
	hex (23 22 30 31 39 38 46 47) rotatingZone (8 15 10) simpleGrading (1 30 1)
	hex (16 23 31 24 32 39 47 40) rotatingZone (6 15 10) simpleGrading (1 30 1)
	hex (33 32 40 41 49 48 56 57) rotatingZone (6 15 10) simpleGrading (1 30 1)
	hex (34 33 41 42 50 49 57 58) rotatingZone (8 15 10) simpleGrading (1 30 1)
	hex (35 34 42 43 51 50 58 59) rotatingZone (4 15 10) simpleGrading (1 30 1)
	hex (36 35 43 44 52 51 59 60) rotatingZone (6 15 10) simpleGrading (1 30 1)
	hex (37 36 44 45 53 52 60 61) rotatingZone (6 15 10) simpleGrading (1 30 1)
	hex (38 37 45 46 54 53 61 62) rotatingZone (4 15 10) simpleGrading (1 30 1)
	hex (39 38 46 47 55 54 62 63) rotatingZone (8 15 10) simpleGrading (1 30 1)
	hex (32 39 47 40 48 55 63 56) rotatingZone (6 15 10) simpleGrading (1 30 1)
	hex (49 48 56 57 65 64 72 73) rotatingZone (6 15 10) simpleGrading (1 30 1)
	hex (50 49 57 58 66 65 73 74) rotatingZone (8 15 10) simpleGrading (1 30 1)
	hex (51 50 58 59 67 66 74 75) rotatingZone (4 15 10) simpleGrading (1 30 1)
	hex (52 51 59 60 68 67 75 76) rotatingZone (6 15 10) simpleGrading (1 30 1)
	hex (53 52 60 61 69 68 76 77) rotatingZone (6 15 10) simpleGrading (1 30 1)
	hex (54 53 61 62 70 69 77 78) rotatingZone (4 15 10) simpleGrading (1 30 1)
	hex (55 54 62 63 71 70 78 79) rotatingZone (8 15 10) simpleGrading (1 30 1)
	hex (48 55 63 56 64 71 79 72) rotatingZone (6 15 10) simpleGrading (1 30 1)
	hex (65 64 72 73 81 80 88 89) rotatingZone (6 15 10) simpleGrading (1 30 1)
	hex (66 65 73 74 82 81 89 90) rotatingZone (8 15 10) simpleGrading (1 30 1)
	hex (67 66 74 75 83 82 90 91) rotatingZone (4 15 10) simpleGrading (1 30 1)
	hex (68 67 75 76 84 83 91 92) rotatingZone (6 15 10) simpleGrading (1 30 1)
	hex (69 68 76 77 85 84 92 93) rotatingZone (6 15 10) simpleGrading (1 30 1)
	hex (70 69 77 78 86 85 93 94) rotatingZone (4 15 10) simpleGrading (1 30 1)
	hex (71 70 78 79 87 86 94 95) rotatingZone (8 15 10) simpleGrading (1 30 1)
	hex (64 71 79 72 80 87 95 88) rotatingZone (6 15 10) simpleGrading (1 30 1)
	hex (81 80 88 89 97 96 104 105) rotatingZone (6 15 10) simpleGrading (1 30 1)
	hex (82 81 89 90 98 97 105 106) rotatingZone (8 15 10) simpleGrading (1 30 1)
	hex (83 82 90 91 99 98 106 107) rotatingZone (4 15 10) simpleGrading (1 30 1)
	hex (84 83 91 92 100 99 107 108) rotatingZone (6 15 10) simpleGrading (1 30 1)
	hex (85 84 92 93 101 100 108 109) rotatingZone (6 15 10) simpleGrading (1 30 1)
	hex (86 85 93 94 102 101 109 110) rotatingZone (4 15 10) simpleGrading (1 30 1)
	hex (87 86 94 95 103 102 110 111) rotatingZone (8 15 10) simpleGrading (1 30 1)
	hex (80 87 95 88 96 103 111 104) rotatingZone (6 15 10) simpleGrading (1 30 1)
	hex (97 96 104 105 113 112 120 121) rotatingZone (6 15 10) simpleGrading (1 30 1)
	hex (98 97 105 106 114 113 121 122) rotatingZone (8 15 10) simpleGrading (1 30 1)
	hex (99 98 106 107 115 114 122 123) rotatingZone (4 15 10) simpleGrading (1 30 1)
	hex (100 99 107 108 116 115 123 124) rotatingZone (6 15 10) simpleGrading (1 30 1)
	hex (101 100 108 109 117 116 124 125) rotatingZone (6 15 10) simpleGrading (1 30 1)
	hex (102 101 109 110 118 117 125 126) rotatingZone (4 15 10) simpleGrading (1 30 1)
	hex (103 102 110 111 119 118 126 127) rotatingZone (8 15 10) simpleGrading (1 30 1)
	hex (96 103 111 104 112 119 127 120) rotatingZone (6 15 10) simpleGrading (1 30 1)
	hex (113 112 120 121 129 128 136 137) rotatingZone (6 15 10) simpleGrading (1 30 1)
	hex (114 113 121 122 130 129 137 138) rotatingZone (8 15 10) simpleGrading (1 30 1)
	hex (115 114 122 123 131 130 138 139) rotatingZone (4 15 10) simpleGrading (1 30 1)
	hex (116 115 123 124 132 131 139 140) rotatingZone (6 15 10) simpleGrading (1 30 1)
	hex (117 116 124 125 133 132 140 141) rotatingZone (6 15 10) simpleGrading (1 30 1)
	hex (118 117 125 126 134 133 141 142) rotatingZone (4 15 10) simpleGrading (1 30 1)
	hex (119 118 126 127 135 134 142 143) rotatingZone (8 15 10) simpleGrading (1 30 1)
	hex (112 119 127 120 128 135 143 136) rotatingZone (6 15 10) simpleGrading (1 30 1)
	hex (129 128 136 137 145 144 152 153) rotatingZone (6 15 10) simpleGrading (1 30 1)
	hex (130 129 137 138 146 145 153 154) rotatingZone (8 15 10) simpleGrading (1 30 1)
	hex (131 130 138 139 147 146 154 155) rotatingZone (4 15 10) simpleGrading (1 30 1)
	hex (132 131 139 140 148 147 155 156) rotatingZone (6 15 10) simpleGrading (1 30 1)
	hex (133 132 140 141 149 148 156 157) rotatingZone (6 15 10) simpleGrading (1 30 1)
	hex (134 133 141 142 150 149 157 158) rotatingZone (4 15 10) simpleGrading (1 30 1)
	hex (135 134 142 143 151 150 158 159) rotatingZone (8 15 10) simpleGrading (1 30 1)
	hex (128 135 143 136 144 151 159 152) rotatingZone (6 15 10) simpleGrading (1 30 1)
	hex (145 144 152 153 161 160 168 169) rotatingZone (6 15 10) simpleGrading (1 30 1)
	hex (146 145 153 154 162 161 169 170) rotatingZone (8 15 10) simpleGrading (1 30 1)
	hex (147 146 154 155 163 162 170 171) rotatingZone (4 15 10) simpleGrading (1 30 1)
	hex (148 147 155 156 164 163 171 172) rotatingZone (6 15 10) simpleGrading (1 30 1)
	hex (149 148 156 157 165 164 172 173) rotatingZone (6 15 10) simpleGrading (1 30 1)
	hex (150 149 157 158 166 165 173 174) rotatingZone (4 15 10) simpleGrading (1 30 1)
	hex (151 150 158 159 167 166 174 175) rotatingZone (8 15 10) simpleGrading (1 30 1)
	hex (144 151 159 152 160 167 175 168) rotatingZone (6 15 10) simpleGrading (1 30 1)
	hex (161 160 168 169 177 176 184 185) rotatingZone (6 15 10) simpleGrading (1 30 1)
	hex (162 161 169 170 178 177 185 186) rotatingZone (8 15 10) simpleGrading (1 30 1)
	hex (163 162 170 171 179 178 186 187) rotatingZone (4 15 10) simpleGrading (1 30 1)
	hex (164 163 171 172 180 179 187 188) rotatingZone (6 15 10) simpleGrading (1 30 1)
	hex (165 164 172 173 181 180 188 189) rotatingZone (6 15 10) simpleGrading (1 30 1)
	hex (166 165 173 174 182 181 189 190) rotatingZone (4 15 10) simpleGrading (1 30 1)
	hex (167 166 174 175 183 182 190 191) rotatingZone (8 15 10) simpleGrading (1 30 1)
	hex (160 167 175 168 176 183 191 184) rotatingZone (6 15 10) simpleGrading (1 30 1)
	hex (177 176 184 185 193 192 200 201) rotatingZone (6 15 10) simpleGrading (1 30 1)
	hex (178 177 185 186 194 193 201 202) rotatingZone (8 15 10) simpleGrading (1 30 1)
	hex (179 178 186 187 195 194 202 203) rotatingZone (4 15 10) simpleGrading (1 30 1)
	hex (180 179 187 188 196 195 203 204) rotatingZone (6 15 10) simpleGrading (1 30 1)
	hex (181 180 188 189 197 196 204 205) rotatingZone (6 15 10) simpleGrading (1 30 1)
	hex (182 181 189 190 198 197 205 206) rotatingZone (4 15 10) simpleGrading (1 30 1)
	hex (183 182 190 191 199 198 206 207) rotatingZone (8 15 10) simpleGrading (1 30 1)
	hex (176 183 191 184 192 199 207 200) rotatingZone (6 15 10) simpleGrading (1 30 1)
	hex (193 192 200 201 209 208 216 217) rotatingZone (6 15 10) simpleGrading (1 30 1)
	hex (194 193 201 202 210 209 217 218) rotatingZone (8 15 10) simpleGrading (1 30 1)
	hex (195 194 202 203 211 210 218 219) rotatingZone (4 15 10) simpleGrading (1 30 1)
	hex (196 195 203 204 212 211 219 220) rotatingZone (6 15 10) simpleGrading (1 30 1)
	hex (197 196 204 205 213 212 220 221) rotatingZone (6 15 10) simpleGrading (1 30 1)
	hex (198 197 205 206 214 213 221 222) rotatingZone (4 15 10) simpleGrading (1 30 1)
	hex (199 198 206 207 215 214 222 223) rotatingZone (8 15 10) simpleGrading (1 30 1)
	hex (192 199 207 200 208 215 223 216) rotatingZone (6 15 10) simpleGrading (1 30 1)
	hex (209 208 216 217 225 224 232 233) rotatingZone (6 15 10) simpleGrading (1 30 1)
	hex (210 209 217 218 226 225 233 234) rotatingZone (8 15 10) simpleGrading (1 30 1)
	hex (211 210 218 219 227 226 234 235) rotatingZone (4 15 10) simpleGrading (1 30 1)
	hex (212 211 219 220 228 227 235 236) rotatingZone (6 15 10) simpleGrading (1 30 1)
	hex (213 212 220 221 229 228 236 237) rotatingZone (6 15 10) simpleGrading (1 30 1)
	hex (214 213 221 222 230 229 237 238) rotatingZone (4 15 10) simpleGrading (1 30 1)
	hex (215 214 222 223 231 230 238 239) rotatingZone (8 15 10) simpleGrading (1 30 1)
	hex (208 215 223 216 224 231 239 232) rotatingZone (6 15 10) simpleGrading (1 30 1)
	hex (225 224 232 233 241 240 248 249) rotatingZone (6 15 10) simpleGrading (1 30 1)
	hex (226 225 233 234 242 241 249 250) rotatingZone (8 15 10) simpleGrading (1 30 1)
	hex (227 226 234 235 243 242 250 251) rotatingZone (4 15 10) simpleGrading (1 30 1)
	hex (228 227 235 236 244 243 251 252) rotatingZone (6 15 10) simpleGrading (1 30 1)
	hex (229 228 236 237 245 244 252 253) rotatingZone (6 15 10) simpleGrading (1 30 1)
	hex (230 229 237 238 246 245 253 254) rotatingZone (4 15 10) simpleGrading (1 30 1)
	hex (231 230 238 239 247 246 254 255) rotatingZone (8 15 10) simpleGrading (1 30 1)
	hex (224 231 239 232 240 247 255 248) rotatingZone (6 15 10) simpleGrading (1 30 1)
	hex (241 240 248 249 257 256 264 265) rotatingZone (6 15 10) simpleGrading (1 30 1)
	hex (242 241 249 250 258 257 265 266) rotatingZone (8 15 10) simpleGrading (1 30 1)
	hex (243 242 250 251 259 258 266 267) rotatingZone (4 15 10) simpleGrading (1 30 1)
	hex (244 243 251 252 260 259 267 268) rotatingZone (6 15 10) simpleGrading (1 30 1)
	hex (245 244 252 253 261 260 268 269) rotatingZone (6 15 10) simpleGrading (1 30 1)
	hex (246 245 253 254 262 261 269 270) rotatingZone (4 15 10) simpleGrading (1 30 1)
	hex (247 246 254 255 263 262 270 271) rotatingZone (8 15 10) simpleGrading (1 30 1)
	hex (240 247 255 248 256 263 271 264) rotatingZone (6 15 10) simpleGrading (1 30 1)
	hex (257 256 264 265 273 272 280 281) rotatingZone (6 15 10) simpleGrading (1 30 1)
	hex (258 257 265 266 274 273 281 282) rotatingZone (8 15 10) simpleGrading (1 30 1)
	hex (259 258 266 267 275 274 282 283) rotatingZone (4 15 10) simpleGrading (1 30 1)
	hex (260 259 267 268 276 275 283 284) rotatingZone (6 15 10) simpleGrading (1 30 1)
	hex (261 260 268 269 277 276 284 285) rotatingZone (6 15 10) simpleGrading (1 30 1)
	hex (262 261 269 270 278 277 285 286) rotatingZone (4 15 10) simpleGrading (1 30 1)
	hex (263 262 270 271 279 278 286 287) rotatingZone (8 15 10) simpleGrading (1 30 1)
	hex (256 263 271 264 272 279 287 280) rotatingZone (6 15 10) simpleGrading (1 30 1)
);

edges
(
	BSpline 0 7
	(
		(1.8204 -0.2795 3.5407)
		(1.7525 -0.5647 3.577)
		(1.6414 -0.835 3.6364)
		(1.4893 -1.0828 3.7081)
	)
	BSpline 7 6
	(
		(1.0795 -1.4918 3.8324)
		(0.8319 -1.6428 3.9075)
		(0.5636 -1.753 3.9445)
		(0.2815 -1.8198 3.9723)
		(-0.0077 -1.8414 4.0008)
		(-0.2968 -1.8173 3.9708)
		(-0.5786 -1.7482 3.943)
	)
	BSpline 6 5
	(
		(-1.0933 -1.4819 3.8282)
		(-1.3138 -1.29 3.7613)
		(-1.5022 -1.0655 3.7042)
	)
	BSpline 5 4
	(
		(-1.7926 -0.424 3.5555)
	)
	BSpline 4 3
	(
		(-1.8204 0.2795 3.5407)
		(-1.7525 0.5647 3.577)
	)
	BSpline 3 2
	(
		(-1.4893 1.0828 3.7081)
		(-1.3005 1.3037 3.7654)
		(-1.0795 1.4918 3.8324)
	)
	BSpline 2 1
	(
		(-0.5636 1.753 3.9445)
		(-0.2815 1.8198 3.9723)
		(0.0077 1.8414 3.9992)
		(0.2968 1.8173 3.9708)
		(0.5786 1.7482 3.943)
		(0.8464 1.6353 3.9031)
	)
	BSpline 1 0
	(
		(1.3138 1.29 3.7613)
		(1.5022 1.0655 3.7042)
		(1.6559 0.8049 3.6286)
		(1.7926 0.424 3.5555)
	)
	BSpline 16 23
	(
		(1.9738 -0.2743 5.5245)
		(1.903 -0.5719 5.5245)
		(1.787 -0.8541 5.5245)
		(1.6283 -1.1128 5.5245)
	)
	BSpline 23 22
	(
		(1.2005 -1.5396 5.5245)
		(0.9421 -1.6973 5.5245)
		(0.6621 -1.8123 5.5245)
		(0.3676 -1.8819 5.5245)
		(0.0658 -1.9045 5.5245)
		(-0.236 -1.8794 5.5245)
		(-0.5301 -1.8073 5.5245)
	)
	BSpline 22 21
	(
		(-1.0674 -1.5292 5.5245)
		(-1.2975 -1.329 5.5245)
		(-1.4941 -1.0946 5.5245)
	)
	BSpline 21 20
	(
		(-1.7973 -0.4251 5.5245)
	)
	BSpline 20 19
	(
		(-1.8262 0.3092 5.5245)
		(-1.7554 0.6069 5.5245)
	)
	BSpline 19 18
	(
		(-1.4806 1.1477 5.5245)
		(-1.2836 1.3782 5.5245)
		(-1.0529 1.5745 5.5245)
	)
	BSpline 18 17
	(
		(-0.5145 1.8472 5.5245)
		(-0.22 1.9168 5.5245)
		(0.0818 1.9394 5.5245)
		(0.3836 1.9143 5.5245)
		(0.6777 1.8422 5.5245)
		(0.9572 1.7243 5.5245)
	)
	BSpline 17 16
	(
		(1.4451 1.3639 5.5245)
		(1.6418 1.1295 5.5245)
		(1.8022 0.8576 5.5245)
		(1.9449 0.46 5.5245)
	)
	BSpline 32 39
	(
		(2.1985 -0.2799 8.1823)
		(2.1221 -0.6011 8.1823)
		(1.9968 -0.9056 8.1823)
		(1.8255 -1.1848 8.1823)
	)
	BSpline 39 38
	(
		(1.3639 -1.6454 8.1823)
		(1.085 -1.8156 8.1823)
		(0.7828 -1.9397 8.1823)
		(0.465 -2.0149 8.1823)
		(0.1393 -2.0393 8.1823)
		(-0.1864 -2.0121 8.1823)
		(-0.5038 -1.9343 8.1823)
	)
	BSpline 38 37
	(
		(-1.0836 -1.6343 8.1823)
		(-1.332 -1.4181 8.1823)
		(-1.5442 -1.1652 8.1823)
	)
	BSpline 37 36
	(
		(-1.8714 -0.4427 8.1823)
	)
	BSpline 36 35
	(
		(-1.9026 0.3499 8.1823)
		(-1.8262 0.6711 8.1823)
	)
	BSpline 35 34
	(
		(-1.5297 1.2548 8.1823)
		(-1.317 1.5036 8.1823)
		(-1.0681 1.7154 8.1823)
	)
	BSpline 34 33
	(
		(-0.487 2.0097 8.1823)
		(-0.1691 2.0849 8.1823)
		(0.1566 2.1093 8.1823)
		(0.4822 2.0821 8.1823)
		(0.7997 2.0043 8.1823)
		(1.1013 1.8771 8.1823)
	)
	BSpline 33 32
	(
		(1.6279 1.4881 8.1823)
		(1.8401 1.2352 8.1823)
		(2.0132 0.9417 8.1823)
		(2.1672 0.5126 8.1823)
	)
	BSpline 48 55
	(
		(2.409 0.5637 11.726)
		(2.2985 0.5501 11.726)
		(2.141 0.5088 11.726)
		(1.943 0.4308 11.726)
	)
	BSpline 55 54
	(
		(1.4539 0.1377 11.726)
		(1.1755 -0.0727 11.726)
		(0.8811 -0.3092 11.726)
		(0.5752 -0.5539 11.726)
		(0.2609 -0.7821 11.726)
		(-0.0584 -0.9702 11.726)
		(-0.3779 -1.1005 11.726)
	)
	BSpline 54 53
	(
		(-0.9928 -1.1481 11.726)
		(-1.2678 -1.0863 11.726)
		(-1.5083 -0.9847 11.726)
	)
	BSpline 53 52
	(
		(-1.8567 -0.7002 11.726)
		(-1.9697 -0.4659 11.726)
	)
	BSpline 52 51
	(
		(-1.9062 -0.0096 11.726)
	)
	BSpline 51 50
	(
		(-1.6077 0.3506 11.726)
		(-1.3828 0.5009 11.726)
		(-1.1132 0.6206 11.726)
	)
	BSpline 50 49
	(
		(-0.4669 0.7568 11.726)
		(-0.109 0.7814 11.726)
		(0.2593 0.7817 11.726)
		(0.6273 0.764 11.726)
		(0.984 0.7368 11.726)
		(1.3194 0.7062 11.726)
	)
	BSpline 49 48
	(
		(1.8908 0.6515 11.726)
		(2.1119 0.6318 11.726)
		(2.2827 0.6167 11.726)
		(2.3992 0.6052 11.726)
	)
	BSpline 64 71
	(
		(2.4948 0.4866 15.565)
		(2.3808 0.4801 15.565)
		(2.2182 0.4467 15.565)
		(2.0129 0.378 15.565)
	)
	BSpline 71 70
	(
		(1.5012 0.1149 15.565)
		(1.2071 -0.0724 15.565)
		(0.8954 -0.2828 15.565)
		(0.5724 -0.5047 15.565)
		(0.2436 -0.7209 15.565)
		(-0.0864 -0.9091 15.565)
		(-0.4142 -1.0412 15.565)
	)
	BSpline 70 69
	(
		(-1.0433 -1.0674 15.565)
		(-1.3226 -0.9925 15.565)
		(-1.5641 -0.8847 15.565)
	)
	BSpline 69 68
	(
		(-1.9026 -0.6236 15.565)
	)
	BSpline 68 67
	(
		(-1.9832 -0.2323 15.565)
		(-1.9014 -0.069 15.565)
	)
	BSpline 67 66
	(
		(-1.5777 0.2475 15.565)
		(-1.3418 0.3836 15.565)
		(-1.0622 0.4925 15.565)
	)
	BSpline 66 65
	(
		(-0.3992 0.6116 15.565)
		(-0.0355 0.6358 15.565)
		(0.3366 0.6412 15.565)
		(0.7071 0.6324 15.565)
		(1.0657 0.6148 15.565)
		(1.4027 0.5933 15.565)
	)
	BSpline 65 64
	(
		(1.9771 0.5519 15.565)
		(2.1997 0.5362 15.565)
		(2.3717 0.524 15.565)
		(2.489 0.5147 15.565)
	)
	BSpline 80 87
	(
		(2.3735 0.3767 19.9947)
		(2.264 0.3735 19.9947)
		(2.1073 0.3456 19.9947)
		(1.9087 0.2851 19.9947)
	)
	BSpline 87 86
	(
		(1.4113 0.0469 19.9947)
		(1.1245 -0.1241 19.9947)
		(0.8201 -0.3165 19.9947)
		(0.5047 -0.52 19.9947)
		(0.184 -0.7186 19.9947)
		(-0.137 -0.8912 19.9947)
		(-0.4545 -1.0104 19.9947)
	)
	BSpline 86 85
	(
		(-1.0584 -1.0199 19.9947)
		(-1.3244 -0.9412 19.9947)
		(-1.5533 -0.8322 19.9947)
	)
	BSpline 85 84
	(
		(-1.8709 -0.5767 19.9947)
	)
	BSpline 84 83
	(
		(-1.9368 -0.2085 19.9947)
		(-1.8539 -0.0565 19.9947)
	)
	BSpline 83 82
	(
		(-1.5352 0.2361 19.9947)
		(-1.3055 0.3602 19.9947)
		(-1.0347 0.4576 19.9947)
	)
	BSpline 82 81
	(
		(-0.3961 0.556 19.9947)
		(-0.047 0.5711 19.9947)
		(0.3097 0.5686 19.9947)
		(0.6644 0.5527 19.9947)
		(1.0076 0.5286 19.9947)
		(1.3299 0.5012 19.9947)
	)
	BSpline 81 80
	(
		(1.8792 0.4499 19.9947)
		(2.0921 0.4302 19.9947)
		(2.2566 0.4148 19.9947)
		(2.3688 0.4032 19.9947)
	)
	BSpline 96 103
	(
		(2.2305 0.2875 24.129)
		(2.1259 0.288 24.129)
		(1.9749 0.2719 24.129)
		(1.7827 0.2301 24.129)
	)
	BSpline 103 102
	(
		(1.2996 0.0429 24.129)
		(1.021 -0.1009 24.129)
		(0.7254 -0.2653 24.129)
		(0.4188 -0.4385 24.129)
		(0.1073 -0.607 24.129)
		(-0.2036 -0.7534 24.129)
	)
	BSpline 102 101
	(
		(-0.8051 -0.8887 24.129)
		(-1.0832 -0.8607 24.129)
		(-1.3329 -0.7939 24.129)
		(-1.5459 -0.7041 24.129)
	)
	BSpline 101 100
	(
		(-1.8361 -0.5008 24.129)
	)
	BSpline 100 99
	(
		(-1.8785 -0.2329 24.129)
		(-1.7926 -0.115 24.129)
	)
	BSpline 99 98
	(
		(-1.4792 0.1308 24.129)
		(-1.2577 0.2423 24.129)
		(-0.9986 0.3341 24.129)
	)
	BSpline 98 97
	(
		(-0.3914 0.4339 24.129)
		(-0.06 0.4503 24.129)
		(0.2781 0.451 24.129)
		(0.6138 0.4402 24.129)
		(0.9383 0.4219 24.129)
		(1.2431 0.3998 24.129)
	)
	BSpline 97 96
	(
		(1.7629 0.3554 24.129)
		(1.9646 0.337 24.129)
		(2.1205 0.3219 24.129)
		(2.2269 0.3101 24.129)
	)
	BSpline 112 119
	(
		(2.0742 0.2016 27.968)
		(1.9752 0.2046 27.968)
		(1.8307 0.2016 27.968)
		(1.6461 0.1799 27.968)
	)
	BSpline 119 118
	(
		(1.1816 0.0392 27.968)
		(0.9144 -0.0859 27.968)
		(0.631 -0.2321 27.968)
		(0.3359 -0.3783 27.968)
		(0.0344 -0.5064 27.968)
		(-0.2674 -0.6037 27.968)
	)
	BSpline 118 117
	(
		(-0.8429 -0.6936 27.968)
		(-1.1019 -0.6881 27.968)
		(-1.3321 -0.6557 27.968)
		(-1.527 -0.6034 27.968)
	)
	BSpline 117 116
	(
		(-1.7908 -0.457 27.968)
	)
	BSpline 116 115
	(
		(-1.8226 -0.2269 27.968)
		(-1.7372 -0.1305 27.968)
	)
	BSpline 115 114
	(
		(-1.4335 0.0786 27.968)
		(-1.2216 0.1785 27.968)
		(-0.9756 0.2669 27.968)
	)
	BSpline 114 113
	(
		(-0.4029 0.3782 27.968)
		(-0.0898 0.3939 27.968)
		(0.2297 0.3912 27.968)
		(0.5471 0.3758 27.968)
		(0.8539 0.3527 27.968)
		(1.1419 0.3264 27.968)
	)
	BSpline 113 112
	(
		(1.6329 0.2751 27.968)
		(1.8235 0.2539 27.968)
		(1.9707 0.2368 27.968)
		(2.0712 0.2238 27.968)
	)
	BSpline 128 135
	(
		(1.8788 0.109 32.3977)
		(1.7867 0.1139 32.3977)
		(1.6522 0.1144 32.3977)
		(1.4798 0.0989 32.3977)
	)
	BSpline 135 134
	(
		(1.0443 -0.0198 32.3977)
		(0.7929 -0.1293 32.3977)
		(0.526 -0.258 32.3977)
		(0.248 -0.386 32.3977)
		(-0.0355 -0.4966 32.3977)
		(-0.3187 -0.5784 32.3977)
	)
	BSpline 134 133
	(
		(-0.8564 -0.6481 32.3977)
		(-1.097 -0.6389 32.3977)
		(-1.3102 -0.606 32.3977)
		(-1.4901 -0.5554 32.3977)
	)
	BSpline 133 132
	(
		(-1.7318 -0.4175 32.3977)
	)
	BSpline 132 131
	(
		(-1.7561 -0.205 32.3977)
		(-1.6745 -0.1179 32.3977)
	)
	BSpline 131 130
	(
		(-1.3872 0.0687 32.3977)
		(-1.1879 0.1569 32.3977)
		(-0.957 0.234 32.3977)
	)
	BSpline 130 129
	(
		(-0.422 0.3266 32.3977)
		(-0.1304 0.335 32.3977)
		(0.1668 0.3257 32.3977)
		(0.4618 0.3045 32.3977)
		(0.7467 0.2763 32.3977)
		(1.0141 0.2455 32.3977)
	)
	BSpline 129 128
	(
		(1.4698 0.1872 32.3977)
		(1.6466 0.1633 32.3977)
		(1.7833 0.1441 32.3977)
		(1.8764 0.1298 32.3977)
	)
	BSpline 144 151
	(
		(1.7152 0.039 36.2367)
		(1.6293 0.0412 36.2367)
		(1.5036 0.0395 36.2367)
		(1.3417 0.027 36.2367)
	)
	BSpline 151 150
	(
		(0.9292 -0.0584 36.2367)
		(0.6894 -0.1358 36.2367)
		(0.4342 -0.2265 36.2367)
		(0.1688 -0.3168 36.2367)
		(-0.1012 -0.3954 36.2367)
		(-0.3696 -0.4542 36.2367)
	)
	BSpline 150 149
	(
		(-0.8754 -0.5077 36.2367)
		(-1.1002 -0.5042 36.2367)
		(-1.2982 -0.4841 36.2367)