// * * * * * * * * * * * * * * * * * * * * * * * * * * * * * * * * * * * * * //
FoamFile
{
	version     2.0;
	format      ascii;
	class       dictionary;
	object      blockMeshDict;
}
// * * * * * * * * * * * * * * * * * * * * * * * * * * * * * * * * * * * * * //
convertToMeters 1;

vertices
(
	(-1.4893   	1.0828   	3.7081)		//0
	(-1.5022   	-1.0655   	3.7042)		//1
	(1.6414   	-0.835   	3.6364)		//2
	(1.6559   	0.8049   	3.6286)		//3
	(-3.0   	3.0   	2.6458)		//4
	(-3.0   	-3.0   	2.6458)		//5
	(3.0   	-3.0   	2.6458)		//6
	(3.0   	3.0   	2.6458)		//7
	(-1.4806   	1.1477   	5.5245)		//8
	(-1.4941   	-1.0946   	5.5245)		//9
	(1.787   	-0.8541   	5.5245)		//10
	(1.8022   	0.8576   	5.5245)		//11
	(-3.0   	3.0   	5.5245)		//12
	(-3.0   	-3.0   	5.5245)		//13
	(3.0   	-3.0   	5.5245)		//14
	(3.0   	3.0   	5.5245)		//15
	(-1.5297   	1.2548   	8.1823)		//16
	(-1.5442   	-1.1652   	8.1823)		//17
	(1.9968   	-0.9056   	8.1823)		//18
	(2.0132   	0.9417   	8.1823)		//19
	(-3.0   	3.0   	8.1823)		//20
	(-3.0   	-3.0   	8.1823)		//21
	(3.0   	-3.0   	8.1823)		//22
	(3.0   	3.0   	8.1823)		//23
	(-1.6077   	0.3506   	11.726)		//24
	(-1.5083   	-0.9847   	11.726)		//25
	(2.2985   	0.5501   	11.726)		//26
	(2.2827   	0.6167   	11.726)		//27
	(-3.0   	3.0   	11.726)		//28
	(-3.0   	-3.0   	11.726)		//29
	(3.0   	-3.0   	11.726)		//30
	(3.0   	3.0   	11.726)		//31
	(-1.5777   	0.2475   	15.565)		//32
	(-1.5641   	-0.8847   	15.565)		//33
	(2.3808   	0.4801   	15.565)		//34
	(2.3717   	0.524   	15.565)		//35
	(-3.0   	3.0   	15.565)		//36
	(-3.0   	-3.0   	15.565)		//37
	(3.0   	-3.0   	15.565)		//38
	(3.0   	3.0   	15.565)		//39
	(-1.5352   	0.2361   	19.9947)		//40
	(-1.5533   	-0.8322   	19.9947)		//41
	(2.264   	0.3735   	19.9947)		//42
	(2.2566   	0.4148   	19.9947)		//43
	(-3.0   	3.0   	19.9947)		//44
	(-3.0   	-3.0   	19.9947)		//45
	(3.0   	-3.0   	19.9947)		//46
	(3.0   	3.0   	19.9947)		//47
	(-1.4792   	0.1308   	24.129)		//48
	(-1.5459   	-0.7041   	24.129)		//49
	(2.1259   	0.288   	24.129)		//50
	(2.1205   	0.3219   	24.129)		//51
	(-3.0   	3.0   	24.129)		//52
	(-3.0   	-3.0   	24.129)		//53
	(3.0   	-3.0   	24.129)		//54
	(3.0   	3.0   	24.129)		//55
	(-1.4335   	0.0786   	27.968)		//56
	(-1.527   	-0.6034   	27.968)		//57
	(1.9752   	0.2046   	27.968)		//58
	(1.9707   	0.2368   	27.968)		//59
	(-3.0   	3.0   	27.968)		//60
	(-3.0   	-3.0   	27.968)		//61
	(3.0   	-3.0   	27.968)		//62
	(3.0   	3.0   	27.968)		//63
	(-1.3872   	0.0687   	32.3977)		//64
	(-1.4901   	-0.5554   	32.3977)		//65
	(1.7867   	0.1139   	32.3977)		//66
	(1.7833   	0.1441   	32.3977)		//67
	(-3.0   	3.0   	32.3977)		//68
	(-3.0   	-3.0   	32.3977)		//69
	(3.0   	-3.0   	32.3977)		//70
	(3.0   	3.0   	32.3977)		//71
	(-1.3484   	0.0469   	36.2367)		//72
	(-1.4643   	-0.4517   	36.2367)		//73
	(1.6293   	0.0412   	36.2367)		//74
	(1.6261   	0.0748   	36.2367)		//75
	(-3.0   	3.0   	36.2367)		//76
	(-3.0   	-3.0   	36.2367)		//77
	(3.0   	-3.0   	36.2367)		//78
	(3.0   	3.0   	36.2367)		//79
	(-1.3091   	0.038   	40.371)		//80
	(-1.2729   	-0.4533   	40.371)		//81
	(1.4574   	-0.0241   	40.371)		//82
	(1.4551   	0.0073   	40.371)		//83
	(-3.0   	3.0   	40.371)		//84
	(-3.0   	-3.0   	40.371)		//85
	(3.0   	-3.0   	40.371)		//86
	(3.0   	3.0   	40.371)		//87
	(-1.2696   	0.0056   	44.5053)		//88
	(-1.2488   	-0.3731   	44.5053)		//89
	(1.2835   	-0.0737   	44.5053)		//90
	(1.2825   	-0.0546   	44.5053)		//91
	(-3.0   	3.0   	44.5053)		//92
	(-3.0   	-3.0   	44.5053)		//93
	(3.0   	-3.0   	44.5053)		//94
	(3.0   	3.0   	44.5053)		//95
	(-1.2332   	-0.0066   	48.6397)		//96
	(-1.2192   	-0.3535   	48.6397)		//97
	(1.1084   	-0.1124   	48.6397)		//98
	(1.1077   	-0.095   	48.6397)		//99
	(-3.0   	3.0   	48.6397)		//100
	(-3.0   	-3.0   	48.6397)		//101
	(3.0   	-3.0   	48.6397)		//102
	(3.0   	3.0   	48.6397)		//103
	(-1.1999   	-0.0186   	52.4787)		//104
	(-1.1911   	-0.3368   	52.4787)		//105
	(0.9452   	-0.1433   	52.4787)		//106
	(0.9447   	-0.1273   	52.4787)		//107
	(-3.0   	3.0   	52.4787)		//108
	(-3.0   	-3.0   	52.4787)		//109
	(3.0   	-3.0   	52.4787)		//110
	(3.0   	3.0   	52.4787)		//111
	(-1.1695   	-0.0305   	56.0224)		//112
	(-1.1649   	-0.322   	56.0224)		//113
	(0.7941   	-0.1684   	56.0224)		//114
	(0.7939   	-0.1537   	56.0224)		//115
	(-3.0   	3.0   	56.0224)		//116
	(-3.0   	-3.0   	56.0224)		//117
	(3.0   	-3.0   	56.0224)		//118
	(3.0   	3.0   	56.0224)		//119
	(-1.1344   	-0.0469   	58.9755)		//120
	(-1.1327   	-0.3066   	58.9755)		//121
	(0.6131   	-0.1858   	58.9755)		//122
	(0.613   	-0.1728   	58.9755)		//123
	(-3.0   	3.0   	58.9755)		//124
	(-3.0   	-3.0   	58.9755)		//125
	(3.0   	-3.0   	58.9755)		//126
	(3.0   	3.0   	58.9755)		//127
	(-1.0483   	-0.0953   	61.6333)		//128
	(-1.048   	-0.2735   	61.6333)		//129
	(0.1505   	-0.196   	61.6333)		//130
	(0.1505   	-0.1871   	61.6333)		//131
	(-3.0   	3.0   	61.6333)		//132
	(-3.0   	-3.0   	61.6333)		//133
	(3.0   	-3.0   	61.6333)		//134
	(3.0   	3.0   	61.6333)		//135
	(-0.5   	0.5   	65)		//136
	(-0.5   	-0.5   	65)		//137
	(0.5   	-0.5   	65)		//138
	(0.5   	0.5   	65)		//139
	(-3.0   	3.0   	65)		//140
	(-3.0   	-3.0   	65)		//141
	(3.0   	-3.0   	65)		//142
	(3.0   	3.0   	65)		//143
	(3.956   	1.0828   	-0.5643)		//144
	(3.959   	-1.0655   	-0.5512)		//145
	(2.3285   	-0.835   	-3.2397)		//146
	(2.3145   	0.8049   	-3.2484)		//147
	(3.7913   	3.0   	1.2752)		//148
	(3.7913   	-3.0   	1.2752)		//149
	(0.7913   	-3.0   	-3.921)		//150
	(0.7913   	3.0   	-3.921)		//151
	(5.5247   	1.1477   	-1.48)		//152
	(5.5314   	-1.0946   	-1.4683)		//153
	(3.8909   	-0.8541   	-4.3098)		//154
	(3.8833   	0.8576   	-4.323)		//155
	(6.2844   	3.0   	-0.1642)		//156
	(6.2844   	-3.0   	-0.1642)		//157
	(3.2844   	-3.0   	-5.3603)		//158
	(3.2844   	3.0   	-5.3603)		//159
	(7.8509   	1.2548   	-2.7664)		//160
	(7.8582   	-1.1652   	-2.7538)		//161
	(6.0877   	-0.9056   	-5.8204)		//162
	(6.0795   	0.9417   	-5.8346)		//163
	(8.5861   	3.0   	-1.4931)		//164
	(8.5861   	-3.0   	-1.4931)		//165
	(5.5861   	-3.0   	-6.6892)		//166
	(5.5861   	3.0   	-6.6892)		//167
	(10.9589   	0.3506   	-4.4707)		//168
	(10.9092   	-0.9847   	-4.5568)		//169
	(9.0058   	0.5501   	-7.8536)		//170
	(9.0137   	0.6167   	-7.8399)		//171
	(11.655   	3.0   	-3.2649)		//172
	(11.655   	-3.0   	-3.2649)		//173
	(8.655   	-3.0   	-8.4611)		//174
	(8.655   	3.0   	-8.4611)		//175
	(14.2685   	0.2475   	-6.4162)		//176
	(14.2617   	-0.8847   	-6.4279)		//177
	(12.2893   	0.4801   	-9.8443)		//178
	(12.2938   	0.524   	-9.8365)		//179
	(14.9797   	3.0   	-5.1844)		//180
	(14.9797   	-3.0   	-5.1844)		//181
	(11.9797   	-3.0   	-10.3806)		//182
	(11.9797   	3.0   	-10.3806)		//183
	(18.0835   	0.2361   	-8.6678)		//184
	(18.0926   	-0.8322   	-8.6522)		//185
	(16.1839   	0.3735   	-11.958)		//186
	(16.1876   	0.4148   	-11.9516)		//187
	(18.8159   	3.0   	-7.3993)		//188
	(18.8159   	-3.0   	-7.3993)		//189
	(15.8159   	-3.0   	-12.5954)		//190
	(15.8159   	3.0   	-12.5954)		//191
	(21.6359   	0.1308   	-10.7835)		//192
	(21.6693   	-0.7041   	-10.7257)		//193
	(19.8334   	0.288   	-13.9056)		//194
	(19.8361   	0.3219   	-13.9009)		//195
	(22.3963   	3.0   	-9.4664)		//196
	(22.3963   	-3.0   	-9.4664)		//197
	(19.3963   	-3.0   	-14.6626)		//198
	(19.3963   	3.0   	-14.6626)		//199
	(24.9377   	0.0786   	-12.7426)		//200
	(24.9845   	-0.6034   	-12.6616)		//201
	(23.2334   	0.2046   	-15.6946)		//202
	(23.2356   	0.2368   	-15.6907)		//203
	(25.721   	3.0   	-11.3859)		//204
	(25.721   	-3.0   	-11.3859)		//205
	(22.721   	-3.0   	-16.5821)		//206
	(22.721   	3.0   	-16.5821)		//207
	(28.7508   	0.0687   	-14.9975)		//208
	(28.8023   	-0.5554   	-14.9084)		//209
	(27.1639   	0.1139   	-17.7462)		//210
	(27.1656   	0.1441   	-17.7432)		//211
	(29.5572   	3.0   	-13.6008)		//212
	(29.5572   	-3.0   	-13.6008)		//213
	(26.5572   	-3.0   	-18.7969)		//214
	(26.5572   	3.0   	-18.7969)		//215
	(32.0561   	0.0469   	-16.9506)		//216
	(32.1141   	-0.4517   	-16.8502)		//217
	(30.5673   	0.0412   	-19.5294)		//218
	(30.5689   	0.0748   	-19.5266)		//219
	(32.8819   	3.0   	-15.5203)		//220
	(32.8819   	-3.0   	-15.5203)		//221
	(29.8819   	-3.0   	-20.7164)		//222
	(29.8819   	3.0   	-20.7164)		//223
	(35.6169   	0.038   	-19.0518)		//224
	(35.5988   	-0.4533   	-19.0831)		//225
	(34.2336   	-0.0241   	-21.4476)		//226
	(34.2348   	0.0073   	-21.4457)		//227
	(36.4623   	3.0   	-17.5874)		//228
	(36.4623   	-3.0   	-17.5874)		//229
	(33.4623   	-3.0   	-22.7836)		//230
	(33.4623   	3.0   	-22.7836)		//231
	(39.1775   	0.0056   	-21.1531)		//232
	(39.1671   	-0.3731   	-21.1712)		//233
	(37.901   	-0.0737   	-23.3642)		//234
	(37.9015   	-0.0546   	-23.3633)		//235
	(40.0427   	3.0   	-19.6546)		//236
	(40.0427   	-3.0   	-19.6546)		//237
	(37.0427   	-3.0   	-24.8507)		//238
	(37.0427   	3.0   	-24.8507)		//239
	(42.7398   	-0.0066   	-23.2519)		//240
	(42.7328   	-0.3535   	-23.264)		//241
	(41.569   	-0.1124   	-25.2798)		//242
	(41.5694   	-0.095   	-25.2791)		//243
	(43.6232   	3.0   	-21.7218)		//244
	(43.6232   	-3.0   	-21.7218)		//245
	(40.6232   	-3.0   	-26.9179)		//246
	(40.6232   	3.0   	-26.9179)		//247
	(46.0478   	-0.0186   	-25.2002)		//248
	(46.0434   	-0.3368   	-25.2078)		//249
	(44.9753   	-0.1433   	-27.0579)		//250
	(44.9755   	-0.1273   	-27.0575)		//251
	(46.9479   	3.0   	-23.6413)		//252
	(46.9479   	-3.0   	-23.6413)		//253
	(43.9479   	-3.0   	-28.8374)		//254
	(43.9479   	3.0   	-28.8374)		//255
	(49.1016   	-0.0305   	-26.9984)		//256
	(49.0993   	-0.322   	-27.0024)		//257
	(48.1198   	-0.1684   	-28.6989)		//258
	(48.1199   	-0.1537   	-28.6987)		//259
	(50.0168   	3.0   	-25.4131)		//260
	(50.0168   	-3.0   	-25.4131)		//261
	(47.0168   	-3.0   	-30.6093)		//262
	(47.0168   	3.0   	-30.6093)		//263
	(51.6415   	-0.0469   	-28.5053)		//264
	(51.6406   	-0.3066   	-28.5068)		//265
	(50.7677   	-0.1858   	-30.0187)		//266
	(50.7678   	-0.1728   	-30.0186)		//267
	(52.5743   	3.0   	-26.8897)		//268
	(52.5743   	-3.0   	-26.8897)		//269
	(49.5743   	-3.0   	-32.0858)		//270
	(49.5743   	3.0   	-32.0858)		//271
	(53.9002   	-0.0953   	-29.9088)		//272
	(53.9   	-0.2735   	-29.9091)		//273
	(53.3008   	-0.196   	-30.947)		//274
	(53.3008   	-0.1871   	-30.947)		//275
	(54.876   	3.0   	-28.2186)		//276
	(54.876   	-3.0   	-28.2186)		//277
	(51.876   	-3.0   	-33.4147)		//278
	(51.876   	3.0   	-33.4147)		//279
	(56.5417   	0.5   	-32.067)		//280
	(56.5417   	-0.5   	-32.067)		//281
	(56.0417   	-0.5   	-32.933)		//282
	(56.0417   	0.5   	-32.933)		//283
	(57.7917   	3.0   	-29.9019)		//284
	(57.7917   	-3.0   	-29.9019)		//285
	(54.7917   	-3.0   	-35.0981)		//286
	(54.7917   	3.0   	-35.0981)		//287
	(-2.4667   	1.0828   	-3.1438)		//288
	(-2.4568   	-1.0655   	-3.153)		//289
	(-3.9699   	-0.835   	-0.3967)		//290
	(-3.9704   	0.8049   	-0.3802)		//291
	(-0.7913   	3.0   	-3.921)		//292
	(-0.7913   	-3.0   	-3.921)		//293
	(-3.7913   	-3.0   	1.2752)		//294
	(-3.7913   	3.0   	1.2752)		//295
	(-4.0441   	1.1477   	-4.0445)		//296
	(-4.0373   	-1.0946   	-4.0562)		//297
	(-5.6779   	-0.8541   	-1.2147)		//298
	(-5.6855   	0.8576   	-1.2015)		//299
	(-3.2844   	3.0   	-5.3603)		//300
	(-3.2844   	-3.0   	-5.3603)		//301
	(-6.2844   	-3.0   	-0.1642)		//302
	(-6.2844   	3.0   	-0.1642)		//303
	(-6.3212   	1.2548   	-5.4159)		//304
	(-6.314   	-1.1652   	-5.4285)		//305
	(-8.0845   	-0.9056   	-2.3619)		//306
	(-8.0927   	0.9417   	-2.3477)		//307
	(-5.5861   	3.0   	-6.6892)		//308
	(-5.5861   	-3.0   	-6.6892)		//309
	(-8.5861   	-3.0   	-1.4931)		//310
	(-8.5861   	3.0   	-1.4931)		//311
	(-9.3512   	0.3506   	-7.2553)		//312
	(-9.4009   	-0.9847   	-7.1692)		//313
	(-11.3043   	0.5501   	-3.8724)		//314
	(-11.2964   	0.6167   	-3.8861)		//315
	(-8.655   	3.0   	-8.4611)		//316
	(-8.655   	-3.0   	-8.4611)		//317
	(-11.655   	-3.0   	-3.2649)		//318
	(-11.655   	3.0   	-3.2649)		//319
	(-12.6908   	0.2475   	-9.1488)		//320
	(-12.6976   	-0.8847   	-9.1371)		//321
	(-14.6701   	0.4801   	-5.7207)		//322
	(-14.6655   	0.524   	-5.7285)		//323
	(-11.9797   	3.0   	-10.3806)		//324
	(-11.9797   	-3.0   	-10.3806)		//325
	(-14.9797   	-3.0   	-5.1844)		//326
	(-14.9797   	3.0   	-5.1844)		//327
	(-16.5483   	0.2361   	-11.3269)		//328
	(-16.5393   	-0.8322   	-11.3425)		//329
	(-18.4479   	0.3735   	-8.0367)		//330
	(-18.4442   	0.4148   	-8.0431)		//331
	(-15.8159   	3.0   	-12.5954)		//332
	(-15.8159   	-3.0   	-12.5954)		//333
	(-18.8159   	-3.0   	-7.3993)		//334
	(-18.8159   	3.0   	-7.3993)		//335
	(-20.1567   	0.1308   	-13.3455)		//336
	(-20.1234   	-0.7041   	-13.4033)		//337
	(-21.9593   	0.288   	-10.2234)		//338
	(-21.9566   	0.3219   	-10.2281)		//339
	(-19.3963   	3.0   	-14.6626)		//340
	(-19.3963   	-3.0   	-14.6626)		//341
	(-22.3963   	-3.0   	-9.4664)		//342
	(-22.3963   	3.0   	-9.4664)		//343
	(-23.5042   	0.0786   	-15.2254)		//344
	(-23.4575   	-0.6034   	-15.3064)		//345
	(-25.2086   	0.2046   	-12.2734)		//346
	(-25.2063   	0.2368   	-12.2773)		//347
	(-22.721   	3.0   	-16.5821)		//348
	(-22.721   	-3.0   	-16.5821)		//349
	(-25.721   	-3.0   	-11.3859)		//350
	(-25.721   	3.0   	-11.3859)		//351
	(-27.3636   	0.0687   	-17.4002)		//352
	(-27.3122   	-0.5554   	-17.4893)		//353
	(-28.9506   	0.1139   	-14.6515)		//354
	(-28.9489   	0.1441   	-14.6545)		//355
	(-26.5572   	3.0   	-18.7969)		//356
	(-26.5572   	-3.0   	-18.7969)		//357
	(-29.5572   	-3.0   	-13.6008)		//358
	(-29.5572   	3.0   	-13.6008)		//359
	(-30.7077   	0.0469   	-19.2861)		//360
	(-30.6498   	-0.4517   	-19.3865)		//361
	(-32.1966   	0.0412   	-16.7073)		//362
	(-32.195   	0.0748   	-16.7101)		//363
	(-29.8819   	3.0   	-20.7164)		//364
	(-29.8819   	-3.0   	-20.7164)		//365
	(-32.8819   	-3.0   	-15.5203)		//366
	(-32.8819   	3.0   	-15.5203)		//367
	(-34.3078   	0.038   	-21.3192)		//368
	(-34.3259   	-0.4533   	-21.2879)		//369
	(-35.691   	-0.0241   	-18.9234)		//370
	(-35.6899   	0.0073   	-18.9253)		//371
	(-33.4623   	3.0   	-22.7836)		//372
	(-33.4623   	-3.0   	-22.7836)		//373
	(-36.4623   	-3.0   	-17.5874)		//374
	(-36.4623   	3.0   	-17.5874)		//375
	(-37.9079   	0.0056   	-23.3522)		//376
	(-37.9183   	-0.3731   	-23.3341)		//377
	(-39.1845   	-0.0737   	-21.1411)		//378
	(-39.184   	-0.0546   	-21.142)		//379
	(-37.0427   	3.0   	-24.8507)		//380
	(-37.0427   	-3.0   	-24.8507)		//381
	(-40.0427   	-3.0   	-19.6546)		//382
	(-40.0427   	3.0   	-19.6546)		//383
	(-41.5066   	-0.0066   	-25.3878)		//384
	(-41.5136   	-0.3535   	-25.3757)		//385
	(-42.6774   	-0.1124   	-23.3599)		//386
	(-42.6771   	-0.095   	-23.3606)		//387
	(-40.6232   	3.0   	-26.9179)		//388
	(-40.6232   	-3.0   	-26.9179)		//389
	(-43.6232   	-3.0   	-21.7218)		//390
	(-43.6232   	3.0   	-21.7218)		//391
	(-44.8479   	-0.0186   	-27.2785)		//392
	(-44.8523   	-0.3368   	-27.2709)		//393
	(-45.9205   	-0.1433   	-25.4208)		//394
	(-45.9202   	-0.1273   	-25.4212)		//395
	(-43.9479   	3.0   	-28.8374)		//396
	(-43.9479   	-3.0   	-28.8374)		//397
	(-46.9479   	-3.0   	-23.6413)		//398
	(-46.9479   	3.0   	-23.6413)		//399
	(-47.9321   	-0.0305   	-29.024)		//400
	(-47.9344   	-0.322   	-29.02)		//401
	(-48.9139   	-0.1684   	-27.3235)		//402
	(-48.9138   	-0.1537   	-27.3237)		//403
	(-47.0168   	3.0   	-30.6093)		//404
	(-47.0168   	-3.0   	-30.6093)		//405
	(-50.0168   	-3.0   	-25.4131)		//406
	(-50.0168   	3.0   	-25.4131)		//407
	(-50.5071   	-0.0469   	-30.4702)		//408
	(-50.5079   	-0.3066   	-30.4687)		//409
	(-51.3808   	-0.1858   	-28.9568)		//410
	(-51.3808   	-0.1728   	-28.9569)		//411
	(-49.5743   	3.0   	-32.0858)		//412
	(-49.5743   	-3.0   	-32.0858)		//413
	(-52.5743   	-3.0   	-26.8897)		//414
	(-52.5743   	3.0   	-26.8897)		//415
	(-52.8519   	-0.0953   	-31.7245)		//416
	(-52.852   	-0.2735   	-31.7242)		//417
	(-53.4513   	-0.196   	-30.6863)		//418
	(-53.4513   	-0.1871   	-30.6863)		//419
	(-51.876   	3.0   	-33.4147)		//420
	(-51.876   	-3.0   	-33.4147)		//421
	(-54.876   	-3.0   	-28.2186)		//422
	(-54.876   	3.0   	-28.2186)		//423
	(-56.0417   	0.5   	-32.933)		//424
	(-56.0417   	-0.5   	-32.933)		//425
	(-56.5417   	-0.5   	-32.067)		//426
	(-56.5417   	0.5   	-32.067)		//427
	(-54.7917   	3.0   	-35.0981)		//428
	(-54.7917   	-3.0   	-35.0981)		//429
	(-57.7917   	-3.0   	-29.9019)		//430
	(-57.7917   	3.0   	-29.9019)		//431
);

blocks
(
	hex (0 3 7 4 8 11 15 12) rotatingZone (15 10 10) simpleGrading (1 1 1)
	hex (3 2 6 7 11 10 14 15) rotatingZone (10 10 10) simpleGrading (1 1 1)
	hex (2 1 5 6 10 9 13 14) rotatingZone (15 10 10) simpleGrading (1 1 1)
	hex (1 0 4 5 9 8 12 13) rotatingZone (10 10 10) simpleGrading (1 1 1)
	hex (8 11 15 12 16 19 23 20) rotatingZone (15 10 10) simpleGrading (1 1 1)
	hex (11 10 14 15 19 18 22 23) rotatingZone (10 10 10) simpleGrading (1 1 1)
	hex (10 9 13 14 18 17 21 22) rotatingZone (15 10 10) simpleGrading (1 1 1)
	hex (9 8 12 13 17 16 20 21) rotatingZone (10 10 10) simpleGrading (1 1 1)
	hex (16 19 23 20 24 27 31 28) rotatingZone (15 10 10) simpleGrading (1 1 1)
	hex (19 18 22 23 27 26 30 31) rotatingZone (10 10 10) simpleGrading (1 1 1)
	hex (18 17 21 22 26 25 29 30) rotatingZone (15 10 10) simpleGrading (1 1 1)
	hex (17 16 20 21 25 24 28 29) rotatingZone (10 10 10) simpleGrading (1 1 1)
	hex (24 27 31 28 32 35 39 36) rotatingZone (15 10 10) simpleGrading (1 1 1)
	hex (27 26 30 31 35 34 38 39) rotatingZone (10 10 10) simpleGrading (1 1 1)
	hex (26 25 29 30 34 33 37 38) rotatingZone (15 10 10) simpleGrading (1 1 1)
	hex (25 24 28 29 33 32 36 37) rotatingZone (10 10 10) simpleGrading (1 1 1)
	hex (32 35 39 36 40 43 47 44) rotatingZone (15 10 10) simpleGrading (1 1 1)
	hex (35 34 38 39 43 42 46 47) rotatingZone (10 10 10) simpleGrading (1 1 1)
	hex (34 33 37 38 42 41 45 46) rotatingZone (15 10 10) simpleGrading (1 1 1)
	hex (33 32 36 37 41 40 44 45) rotatingZone (10 10 10) simpleGrading (1 1 1)
	hex (40 43 47 44 48 51 55 52) rotatingZone (15 10 10) simpleGrading (1 1 1)
	hex (43 42 46 47 51 50 54 55) rotatingZone (10 10 10) simpleGrading (1 1 1)
	hex (42 41 45 46 50 49 53 54) rotatingZone (15 10 10) simpleGrading (1 1 1)
	hex (41 40 44 45 49 48 52 53) rotatingZone (10 10 10) simpleGrading (1 1 1)
	hex (48 51 55 52 56 59 63 60) rotatingZone (15 10 10) simpleGrading (1 1 1)
	hex (51 50 54 55 59 58 62 63) rotatingZone (10 10 10) simpleGrading (1 1 1)
	hex (50 49 53 54 58 57 61 62) rotatingZone (15 10 10) simpleGrading (1 1 1)
	hex (49 48 52 53 57 56 60 61) rotatingZone (10 10 10) simpleGrading (1 1 1)
	hex (56 59 63 60 64 67 71 68) rotatingZone (15 10 10) simpleGrading (1 1 1)
	hex (59 58 62 63 67 66 70 71) rotatingZone (10 10 10) simpleGrading (1 1 1)
	hex (58 57 61 62 66 65 69 70) rotatingZone (15 10 10) simpleGrading (1 1 1)
	hex (57 56 60 61 65 64 68 69) rotatingZone (10 10 10) simpleGrading (1 1 1)
	hex (64 67 71 68 72 75 79 76) rotatingZone (15 10 10) simpleGrading (1 1 1)
	hex (67 66 70 71 75 74 78 79) rotatingZone (10 10 10) simpleGrading (1 1 1)
	hex (66 65 69 70 74 73 77 78) rotatingZone (15 10 10) simpleGrading (1 1 1)
	hex (65 64 68 69 73 72 76 77) rotatingZone (10 10 10) simpleGrading (1 1 1)
	hex (72 75 79 76 80 83 87 84) rotatingZone (15 10 10) simpleGrading (1 1 1)
	hex (75 74 78 79 83 82 86 87) rotatingZone (10 10 10) simpleGrading (1 1 1)
	hex (74 73 77 78 82 81 85 86) rotatingZone (15 10 10) simpleGrading (1 1 1)
	hex (73 72 76 77 81 80 84 85) rotatingZone (10 10 10) simpleGrading (1 1 1)
	hex (80 83 87 84 88 91 95 92) rotatingZone (15 10 10) simpleGrading (1 1 1)
	hex (83 82 86 87 91 90 94 95) rotatingZone (10 10 10) simpleGrading (1 1 1)
	hex (82 81 85 86 90 89 93 94) rotatingZone (15 10 10) simpleGrading (1 1 1)
	hex (81 80 84 85 89 88 92 93) rotatingZone (10 10 10) simpleGrading (1 1 1)
	hex (88 91 95 92 96 99 103 100) rotatingZone (15 10 10) simpleGrading (1 1 1)
	hex (91 90 94 95 99 98 102 103) rotatingZone (10 10 10) simpleGrading (1 1 1)
	hex (90 89 93 94 98 97 101 102) rotatingZone (15 10 10) simpleGrading (1 1 1)
	hex (89 88 92 93 97 96 100 101) rotatingZone (10 10 10) simpleGrading (1 1 1)
	hex (96 99 103 100 104 107 111 108) rotatingZone (15 10 10) simpleGrading (1 1 1)
	hex (99 98 102 103 107 106 110 111) rotatingZone (10 10 10) simpleGrading (1 1 1)
	hex (98 97 101 102 106 105 109 110) rotatingZone (15 10 10) simpleGrading (1 1 1)
	hex (97 96 100 101 105 104 108 109) rotatingZone (10 10 10) simpleGrading (1 1 1)
	hex (104 107 111 108 112 115 119 116) rotatingZone (15 10 10) simpleGrading (1 1 1)
	hex (107 106 110 111 115 114 118 119) rotatingZone (10 10 10) simpleGrading (1 1 1)
	hex (106 105 109 110 114 113 117 118) rotatingZone (15 10 10) simpleGrading (1 1 1)
	hex (105 104 108 109 113 112 116 117) rotatingZone (10 10 10) simpleGrading (1 1 1)
	hex (112 115 119 116 120 123 127 124) rotatingZone (15 10 10) simpleGrading (1 1 1)
	hex (115 114 118 119 123 122 126 127) rotatingZone (10 10 10) simpleGrading (1 1 1)
	hex (114 113 117 118 122 121 125 126) rotatingZone (15 10 10) simpleGrading (1 1 1)
	hex (113 112 116 117 121 120 124 125) rotatingZone (10 10 10) simpleGrading (1 1 1)
	hex (120 123 127 124 128 131 135 132) rotatingZone (15 10 10) simpleGrading (1 1 1)
	hex (123 122 126 127 131 130 134 135) rotatingZone (10 10 10) simpleGrading (1 1 1)
	hex (122 121 125 126 130 129 133 134) rotatingZone (15 10 10) simpleGrading (1 1 1)
	hex (121 120 124 125 129 128 132 133) rotatingZone (10 10 10) simpleGrading (1 1 1)
	hex (128 131 135 132 136 139 143 140) rotatingZone (15 10 10) simpleGrading (1 1 1)
	hex (131 130 134 135 139 138 142 143) rotatingZone (10 10 10) simpleGrading (1 1 1)
	hex (130 129 133 134 138 137 141 142) rotatingZone (15 10 10) simpleGrading (1 1 1)
	hex (129 128 132 133 137 136 140 141) rotatingZone (10 10 10) simpleGrading (1 1 1)
	hex (128 129 130 131 136 137 138 139) rotatingZone (10 15 10) simpleGrading (1 1 1)
	hex (144 147 151 148 152 155 159 156) rotatingZone (15 10 10) simpleGrading (1 1 1)
	hex (147 146 150 151 155 154 158 159) rotatingZone (10 10 10) simpleGrading (1 1 1)
	hex (146 145 149 150 154 153 157 158) rotatingZone (15 10 10) simpleGrading (1 1 1)
	hex (145 144 148 149 153 152 156 157) rotatingZone (10 10 10) simpleGrading (1 1 1)
	hex (152 155 159 156 160 163 167 164) rotatingZone (15 10 10) simpleGrading (1 1 1)
	hex (155 154 158 159 163 162 166 167) rotatingZone (10 10 10) simpleGrading (1 1 1)
	hex (154 153 157 158 162 161 165 166) rotatingZone (15 10 10) simpleGrading (1 1 1)
	hex (153 152 156 157 161 160 164 165) rotatingZone (10 10 10) simpleGrading (1 1 1)
	hex (160 163 167 164 168 171 175 172) rotatingZone (15 10 10) simpleGrading (1 1 1)
	hex (163 162 166 167 171 170 174 175) rotatingZone (10 10 10) simpleGrading (1 1 1)
	hex (162 161 165 166 170 169 173 174) rotatingZone (15 10 10) simpleGrading (1 1 1)
	hex (161 160 164 165 169 168 172 173) rotatingZone (10 10 10) simpleGrading (1 1 1)
	hex (168 171 175 172 176 179 183 180) rotatingZone (15 10 10) simpleGrading (1 1 1)
	hex (171 170 174 175 179 178 182 183) rotatingZone (10 10 10) simpleGrading (1 1 1)
	hex (170 169 173 174 178 177 181 182) rotatingZone (15 10 10) simpleGrading (1 1 1)
	hex (169 168 172 173 177 176 180 181) rotatingZone (10 10 10) simpleGrading (1 1 1)
	hex (176 179 183 180 184 187 191 188) rotatingZone (15 10 10) simpleGrading (1 1 1)
	hex (179 178 182 183 187 186 190 191) rotatingZone (10 10 10) simpleGrading (1 1 1)
	hex (178 177 181 182 186 185 189 190) rotatingZone (15 10 10) simpleGrading (1 1 1)
	hex (177 176 180 181 185 184 188 189) rotatingZone (10 10 10) simpleGrading (1 1 1)
	hex (184 187 191 188 192 195 199 196) rotatingZone (15 10 10) simpleGrading (1 1 1)
	hex (187 186 190 191 195 194 198 199) rotatingZone (10 10 10) simpleGrading (1 1 1)
	hex (186 185 189 190 194 193 197 198) rotatingZone (15 10 10) simpleGrading (1 1 1)
	hex (185 184 188 189 193 192 196 197) rotatingZone (10 10 10) simpleGrading (1 1 1)
	hex (192 195 199 196 200 203 207 204) rotatingZone (15 10 10) simpleGrading (1 1 1)
	hex (195 194 198 199 203 202 206 207) rotatingZone (10 10 10) simpleGrading (1 1 1)
	hex (194 193 197 198 202 201 205 206) rotatingZone (15 10 10) simpleGrading (1 1 1)
	hex (193 192 196 197 201 200 204 205) rotatingZone (10 10 10) simpleGrading (1 1 1)
	hex (200 203 207 204 208 211 215 212) rotatingZone (15 10 10) simpleGrading (1 1 1)
	hex (203 202 206 207 211 210 214 215) rotatingZone (10 10 10) simpleGrading (1 1 1)
	hex (202 201 205 206 210 209 213 214) rotatingZone (15 10 10) simpleGrading (1 1 1)
	hex (201 200 204 205 209 208 212 213) rotatingZone (10 10 10) simpleGrading (1 1 1)
	hex (208 211 215 212 216 219 223 220) rotatingZone (15 10 10) simpleGrading (1 1 1)
	hex (211 210 214 215 219 218 222 223) rotatingZone (10 10 10) simpleGrading (1 1 1)
	hex (210 209 213 214 218 217 221 222) rotatingZone (15 10 10) simpleGrading (1 1 1)
	hex (209 208 212 213 217 216 220 221) rotatingZone (10 10 10) simpleGrading (1 1 1)
	hex (216 219 223 220 224 227 231 228) rotatingZone (15 10 10) simpleGrading (1 1 1)
	hex (219 218 222 223 227 226 230 231) rotatingZone (10 10 10) simpleGrading (1 1 1)
	hex (218 217 221 222 226 225 229 230) rotatingZone (15 10 10) simpleGrading (1 1 1)
	hex (217 216 220 221 225 224 228 229) rotatingZone (10 10 10) simpleGrading (1 1 1)
	hex (224 227 231 228 232 235 239 236) rotatingZone (15 10 10) simpleGrading (1 1 1)
	hex (227 226 230 231 235 234 238 239) rotatingZone (10 10 10) simpleGrading (1 1 1)
	hex (226 225 229 230 234 233 237 238) rotatingZone (15 10 10) simpleGrading (1 1 1)
	hex (225 224 228 229 233 232 236 237) rotatingZone (10 10 10) simpleGrading (1 1 1)
	hex (232 235 239 236 240 243 247 244) rotatingZone (15 10 10) simpleGrading (1 1 1)
	hex (235 234 238 239 243 242 246 247) rotatingZone (10 10 10) simpleGrading (1 1 1)
	hex (234 233 237 238 242 241 245 246) rotatingZone (15 10 10) simpleGrading (1 1 1)
	hex (233 232 236 237 241 240 244 245) rotatingZone (10 10 10) simpleGrading (1 1 1)
	hex (240 243 247 244 248 251 255 252) rotatingZone (15 10 10) simpleGrading (1 1 1)
	hex (243 242 246 247 251 250 254 255) rotatingZone (10 10 10) simpleGrading (1 1 1)
	hex (242 241 245 246 250 249 253 254) rotatingZone (15 10 10) simpleGrading (1 1 1)
	hex (241 240 244 245 249 248 252 253) rotatingZone (10 10 10) simpleGrading (1 1 1)
	hex (248 251 255 252 256 259 263 260) rotatingZone (15 10 10) simpleGrading (1 1 1)
	hex (251 250 254 255 259 258 262 263) rotatingZone (10 10 10) simpleGrading (1 1 1)
	hex (250 249 253 254 258 257 261 262) rotatingZone (15 10 10) simpleGrading (1 1 1)
	hex (249 248 252 253 257 256 260 261) rotatingZone (10 10 10) simpleGrading (1 1 1)
	hex (256 259 263 260 264 267 271 268) rotatingZone (15 10 10) simpleGrading (1 1 1)
	hex (259 258 262 263 267 266 270 271) rotatingZone (10 10 10) simpleGrading (1 1 1)
	hex (258 257 261 262 266 265 269 270) rotatingZone (15 10 10) simpleGrading (1 1 1)
	hex (257 256 260 261 265 264 268 269) rotatingZone (10 10 10) simpleGrading (1 1 1)
	hex (264 267 271 268 272 275 279 276) rotatingZone (15 10 10) simpleGrading (1 1 1)
	hex (267 266 270 271 275 274 278 279) rotatingZone (10 10 10) simpleGrading (1 1 1)
	hex (266 265 269 270 274 273 277 278) rotatingZone (15 10 10) simpleGrading (1 1 1)
	hex (265 264 268 269 273 272 276 277) rotatingZone (10 10 10) simpleGrading (1 1 1)
	hex (272 275 279 276 280 283 287 284) rotatingZone (15 10 10) simpleGrading (1 1 1)
	hex (275 274 278 279 283 282 286 287) rotatingZone (10 10 10) simpleGrading (1 1 1)
	hex (274 273 277 278 282 281 285 286) rotatingZone (15 10 10) simpleGrading (1 1 1)
	hex (273 272 276 277 281 280 284 285) rotatingZone (10 10 10) simpleGrading (1 1 1)
	hex (272 273 274 275 280 281 282 283) rotatingZone (10 15 10) simpleGrading (1 1 1)
	hex (288 291 295 292 296 299 303 300) rotatingZone (15 10 10) simpleGrading (1 1 1)
	hex (291 290 294 295 299 298 302 303) rotatingZone (10 10 10) simpleGrading (1 1 1)
	hex (290 289 293 294 298 297 301 302) rotatingZone (15 10 10) simpleGrading (1 1 1)
	hex (289 288 292 293 297 296 300 301) rotatingZone (10 10 10) simpleGrading (1 1 1)
	hex (296 299 303 300 304 307 311 308) rotatingZone (15 10 10) simpleGrading (1 1 1)
	hex (299 298 302 303 307 306 310 311) rotatingZone (10 10 10) simpleGrading (1 1 1)
	hex (298 297 301 302 306 305 309 310) rotatingZone (15 10 10) simpleGrading (1 1 1)
	hex (297 296 300 301 305 304 308 309) rotatingZone (10 10 10) simpleGrading (1 1 1)
	hex (304 307 311 308 312 315 319 316) rotatingZone (15 10 10) simpleGrading (1 1 1)
	hex (307 306 310 311 315 314 318 319) rotatingZone (10 10 10) simpleGrading (1 1 1)
	hex (306 305 309 310 314 313 317 318) rotatingZone (15 10 10) simpleGrading (1 1 1)
	hex (305 304 308 309 313 312 316 317) rotatingZone (10 10 10) simpleGrading (1 1 1)
	hex (312 315 319 316 320 323 327 324) rotatingZone (15 10 10) simpleGrading (1 1 1)
	hex (315 314 318 319 323 322 326 327) rotatingZone (10 10 10) simpleGrading (1 1 1)
	hex (314 313 317 318 322 321 325 326) rotatingZone (15 10 10) simpleGrading (1 1 1)
	hex (313 312 316 317 321 320 324 325) rotatingZone (10 10 10) simpleGrading (1 1 1)
	hex (320 323 327 324 328 331 335 332) rotatingZone (15 10 10) simpleGrading (1 1 1)
	hex (323 322 326 327 331 330 334 335) rotatingZone (10 10 10) simpleGrading (1 1 1)
	hex (322 321 325 326 330 329 333 334) rotatingZone (15 10 10) simpleGrading (1 1 1)
	hex (321 320 324 325 329 328 332 333) rotatingZone (10 10 10) simpleGrading (1 1 1)
	hex (328 331 335 332 336 339 343 340) rotatingZone (15 10 10) simpleGrading (1 1 1)
	hex (331 330 334 335 339 338 342 343) rotatingZone (10 10 10) simpleGrading (1 1 1)
	hex (330 329 333 334 338 337 341 342) rotatingZone (15 10 10) simpleGrading (1 1 1)
	hex (329 328 332 333 337 336 340 341) rotatingZone (10 10 10) simpleGrading (1 1 1)
	hex (336 339 343 340 344 347 351 348) rotatingZone (15 10 10) simpleGrading (1 1 1)
	hex (339 338 342 343 347 346 350 351) rotatingZone (10 10 10) simpleGrading (1 1 1)