// * * * * * * * * * * * * * * * * * * * * * * * * * * * * * * * * * * * * * //
FoamFile
{
	version     2.0;
	format      ascii;
	class       dictionary;
	object      blockMeshDict;
}
// * * * * * * * * * * * * * * * * * * * * * * * * * * * * * * * * * * * * * //
convertToMeters 1;

vertices
(
	(0.109   	-0.0   	0.5004)		//0
	(-0.0571   	0.0928   	0.5004)		//1
	(-0.0831   	0.0704   	0.5004)		//2
	(-0.109   	-0.0   	0.5004)		//3
	(-0.0831   	-0.0704   	0.5004)		//4
	(-0.0571   	-0.0928   	0.5004)		//5
	(1   	0.0   	0.5004)		//6
	(1   	0.5   	0.5004)		//7
	(0.68   	0.5   	0.5004)		//8
	(-0.32   	0.5   	0.5004)		//9
	(-1   	0.5   	0.5004)		//10
	(-1   	-0.1   	0.5004)		//11
	(-1   	-0.5   	0.5004)		//12
	(-0.32   	-0.5   	0.5004)		//13
	(0.68   	-0.5   	0.5004)		//14
	(1   	-0.5   	0.5004)		//15
	(0.4816   	0.1754   	1.251)		//16
	(-0.0193   	0.07   	1.251)		//17
	(-0.1417   	0.0003   	1.251)		//18
	(-0.2069   	-0.0752   	1.251)		//19
	(-0.1462   	-0.0873   	1.251)		//20
	(-0.0196   	-0.0806   	1.251)		//21
	(1   	0.0   	1.251)		//22
	(1   	0.5   	1.251)		//23
	(0.68   	0.5   	1.251)		//24
	(-0.32   	0.5   	1.251)		//25
	(-1   	0.5   	1.251)		//26
	(-1   	-0.1   	1.251)		//27
	(-1   	-0.5   	1.251)		//28
	(-0.32   	-0.5   	1.251)		//29
	(0.68   	-0.5   	1.251)		//30
	(1   	-0.5   	1.251)		//31
	(0.4797   	0.1109   	1.5845)		//32
	(-0.0568   	0.0519   	1.5845)		//33
	(-0.1347   	0.0163   	1.5845)		//34
	(-0.2056   	-0.0475   	1.5845)		//35
	(-0.1491   	-0.0658   	1.5845)		//36
	(-0.0277   	-0.074   	1.5845)		//37
	(1   	0.0   	1.5845)		//38
	(1   	0.5   	1.5845)		//39
	(0.68   	0.5   	1.5845)		//40
	(-0.32   	0.5   	1.5845)		//41
	(-1   	0.5   	1.5845)		//42
	(-1   	-0.1   	1.5845)		//43
	(-1   	-0.5   	1.5845)		//44
	(-0.32   	-0.5   	1.5845)		//45
	(0.68   	-0.5   	1.5845)		//46
	(1   	-0.5   	1.5845)		//47
	(0.4634   	0.0687   	1.9181)		//48
	(-0.0499   	0.0535   	1.9181)		//49
	(-0.1265   	0.0257   	1.9181)		//50
	(-0.1986   	-0.0295   	1.9181)		//51
	(-0.1464   	-0.0511   	1.9181)		//52
	(-0.0319   	-0.068   	1.9181)		//53
	(1   	0.0   	1.9181)		//54
	(1   	0.5   	1.9181)		//55
	(0.68   	0.5   	1.9181)		//56
	(-0.32   	0.5   	1.9181)		//57
	(-1   	0.5   	1.9181)		//58
	(-1   	-0.1   	1.9181)		//59
	(-1   	-0.5   	1.9181)		//60
	(-0.32   	-0.5   	1.9181)		//61
	(0.68   	-0.5   	1.9181)		//62
	(1   	-0.5   	1.9181)		//63
	(0.4436   	0.0416   	2.2517)		//64
	(-0.0447   	0.0534   	2.2517)		//65
	(-0.1188   	0.0308   	2.2517)		//66
	(-0.1901   	-0.0178   	2.2517)		//67
	(-0.1417   	-0.0411   	2.2517)		//68
	(-0.0338   	-0.063   	2.2517)		//69
	(1   	0.0   	2.2517)		//70
	(1   	0.5   	2.2517)		//71
	(0.68   	0.5   	2.2517)		//72
	(-0.32   	0.5   	2.2517)		//73
	(-1   	0.5   	2.2517)		//74
	(-1   	-0.1   	2.2517)		//75
	(-1   	-0.5   	2.2517)		//76
	(-0.32   	-0.5   	2.2517)		//77
	(0.68   	-0.5   	2.2517)		//78
	(1   	-0.5   	2.2517)		//79
	(0.4211   	0.0245   	2.5853)		//80
	(-0.0405   	0.052   	2.5853)		//81
	(-0.1114   	0.0332   	2.5853)		//82
	(-0.1805   	-0.0105   	2.5853)		//83
	(-0.107   	-0.0431   	2.5853)		//84
	(-0.0341   	-0.0585   	2.5853)		//85
	(1   	0.0   	2.5853)		//86
	(1   	0.5   	2.5853)		//87
	(0.68   	0.5   	2.5853)		//88
	(-0.32   	0.5   	2.5853)		//89
	(-1   	0.5   	2.5853)		//90
	(-1   	-0.1   	2.5853)		//91
	(-1   	-0.5   	2.5853)		//92
	(-0.32   	-0.5   	2.5853)		//93
	(0.68   	-0.5   	2.5853)		//94
	(1   	-0.5   	2.5853)		//95
	(0.3979   	0.0134   	2.9189)		//96
	(-0.037   	0.05   	2.9189)		//97
	(-0.1044   	0.0339   	2.9189)		//98
	(-0.1705   	-0.0058   	2.9189)		//99
	(-0.1019   	-0.0382   	2.9189)		//100
	(-0.0335   	-0.0544   	2.9189)		//101
	(1   	0.0   	2.9189)		//102
	(1   	0.5   	2.9189)		//103
	(0.68   	0.5   	2.9189)		//104
	(-0.32   	0.5   	2.9189)		//105
	(-1   	0.5   	2.9189)		//106
	(-1   	-0.1   	2.9189)		//107
	(-1   	-0.5   	2.9189)		//108
	(-0.32   	-0.5   	2.9189)		//109
	(0.68   	-0.5   	2.9189)		//110
	(1   	-0.5   	2.9189)		//111
	(0.3745   	0.0064   	3.2525)		//112
	(-0.034   	0.0476   	3.2525)		//113
	(-0.0976   	0.0335   	3.2525)		//114
	(-0.1605   	-0.0027   	3.2525)		//115
	(-0.0965   	-0.0343   	3.2525)		//116
	(-0.0323   	-0.0506   	3.2525)		//117
	(1   	0.0   	3.2525)		//118
	(1   	0.5   	3.2525)		//119
	(0.68   	0.5   	3.2525)		//120
	(-0.32   	0.5   	3.2525)		//121
	(-1   	0.5   	3.2525)		//122
	(-1   	-0.1   	3.2525)		//123
	(-1   	-0.5   	3.2525)		//124
	(-0.32   	-0.5   	3.2525)		//125
	(0.68   	-0.5   	3.2525)		//126
	(1   	-0.5   	3.2525)		//127
	(0.3508   	0.0019   	3.5861)		//128
	(-0.0314   	0.045   	3.5861)		//129
	(-0.0911   	0.0324   	3.5861)		//130
	(-0.1503   	-0.0008   	3.5861)		//131
	(-0.0907   	-0.0311   	3.5861)		//132
	(-0.0308   	-0.0471   	3.5861)		//133
	(1   	0.0   	3.5861)		//134
	(1   	0.5   	3.5861)		//135
	(0.68   	0.5   	3.5861)		//136
	(-0.32   	0.5   	3.5861)		//137
	(-1   	0.5   	3.5861)		//138
	(-1   	-0.1   	3.5861)		//139
	(-1   	-0.5   	3.5861)		//140
	(-0.32   	-0.5   	3.5861)		//141
	(0.68   	-0.5   	3.5861)		//142
	(1   	-0.5   	3.5861)		//143
	(0.3274   	-0.0013   	3.9197)		//144
	(-0.0289   	0.0422   	3.9197)		//145
	(-0.0847   	0.0311   	3.9197)		//146
	(-0.1403   	0.0005   	3.9197)		//147
	(-0.0849   	-0.0282   	3.9197)		//148
	(-0.0292   	-0.0437   	3.9197)		//149
	(1   	0.0   	3.9197)		//150
	(1   	0.5   	3.9197)		//151
	(0.68   	0.5   	3.9197)		//152
	(-0.32   	0.5   	3.9197)		//153
	(-1   	0.5   	3.9197)		//154
	(-1   	-0.1   	3.9197)		//155
	(-1   	-0.5   	3.9197)		//156
	(-0.32   	-0.5   	3.9197)		//157
	(0.68   	-0.5   	3.9197)		//158
	(1   	-0.5   	3.9197)		//159
	(0.3038   	-0.0038   	4.2533)		//160
	(-0.0264   	0.0394   	4.2533)		//161
	(-0.0784   	0.0295   	4.2533)		//162
	(-0.1302   	0.0016   	4.2533)		//163
	(-0.079   	-0.0255   	4.2533)		//164
	(-0.0274   	-0.0403   	4.2533)		//165
	(1   	0.0   	4.2533)		//166
	(1   	0.5   	4.2533)		//167
	(0.68   	0.5   	4.2533)		//168
	(-0.32   	0.5   	4.2533)		//169
	(-1   	0.5   	4.2533)		//170
	(-1   	-0.1   	4.2533)		//171
	(-1   	-0.5   	4.2533)		//172
	(-0.32   	-0.5   	4.2533)		//173
	(0.68   	-0.5   	4.2533)		//174
	(1   	-0.5   	4.2533)		//175
	(0.28   	-0.0058   	4.5868)		//176
	(-0.0241   	0.0365   	4.5868)		//177
	(-0.072   	0.0278   	4.5868)		//178
	(-0.12   	0.0025   	4.5868)		//179
	(-0.0731   	-0.0229   	4.5868)		//180
	(-0.0256   	-0.0369   	4.5868)		//181
	(1   	0.0   	4.5868)		//182
	(1   	0.5   	4.5868)		//183
	(0.68   	0.5   	4.5868)		//184
	(-0.32   	0.5   	4.5868)		//185
	(-1   	0.5   	4.5868)		//186
	(-1   	-0.1   	4.5868)		//187
	(-1   	-0.5   	4.5868)		//188
	(-0.32   	-0.5   	4.5868)		//189
	(0.68   	-0.5   	4.5868)		//190
	(1   	-0.5   	4.5868)		//191
	(0.2563   	-0.0074   	4.9204)		//192
	(-0.0218   	0.0336   	4.9204)		//193
	(-0.0657   	0.026   	4.9204)		//194
	(-0.1099   	0.0032   	4.9204)		//195
	(-0.0671   	-0.0204   	4.9204)		//196
	(-0.0237   	-0.0336   	4.9204)		//197
	(1   	0.0   	4.9204)		//198
	(1   	0.5   	4.9204)		//199
	(0.68   	0.5   	4.9204)		//200
	(-0.32   	0.5   	4.9204)		//201
	(-1   	0.5   	4.9204)		//202
	(-1   	-0.1   	4.9204)		//203
	(-1   	-0.5   	4.9204)		//204
	(-0.32   	-0.5   	4.9204)		//205
	(0.68   	-0.5   	4.9204)		//206
	(1   	-0.5   	4.9204)		//207
	(0.2487   	-0.0075   	5.0289)		//208
	(-0.0212   	0.0327   	5.0289)		//209
	(-0.0638   	0.0253   	5.0289)		//210
	(-0.1067   	0.0033   	5.0289)		//211
	(-0.0652   	-0.0197   	5.0289)		//212
	(-0.0231   	-0.0325   	5.0289)		//213
	(1   	0.0   	5.0289)		//214
	(1   	0.5   	5.0289)		//215
	(0.68   	0.5   	5.0289)		//216
	(-0.32   	0.5   	5.0289)		//217
	(-1   	0.5   	5.0289)		//218
	(-1   	-0.1   	5.0289)		//219
	(-1   	-0.5   	5.0289)		//220
	(-0.32   	-0.5   	5.0289)		//221
	(0.68   	-0.5   	5.0289)		//222
	(1   	-0.5   	5.0289)		//223
	(-0.109   	-0.0   	-0.5004)		//224
	(0.0571   	0.0928   	-0.5004)		//225
	(0.0831   	0.0704   	-0.5004)		//226
	(0.109   	-0.0   	-0.5004)		//227
	(0.0831   	-0.0704   	-0.5004)		//228
	(0.0571   	-0.0928   	-0.5004)		//229
	(-1.0   	0.0   	-0.5004)		//230
	(-1.0   	0.5   	-0.5004)		//231
	(-0.68   	0.5   	-0.5004)		//232
	(0.32   	0.5   	-0.5004)		//233
	(1.0   	0.5   	-0.5004)		//234
	(1.0   	-0.1   	-0.5004)		//235
	(1.0   	-0.5   	-0.5004)		//236
	(0.32   	-0.5   	-0.5004)		//237
	(-0.68   	-0.5   	-0.5004)		//238
	(-1.0   	-0.5   	-0.5004)		//239
	(-0.4816   	0.1754   	-1.251)		//240
	(0.0193   	0.07   	-1.251)		//241
	(0.1417   	0.0003   	-1.251)		//242
	(0.2069   	-0.0752   	-1.251)		//243
	(0.1462   	-0.0873   	-1.251)		//244
	(0.0196   	-0.0806   	-1.251)		//245
	(-1.0   	0.0   	-1.251)		//246
	(-1.0   	0.5   	-1.251)		//247
	(-0.68   	0.5   	-1.251)		//248
	(0.32   	0.5   	-1.251)		//249
	(1.0   	0.5   	-1.251)		//250
	(1.0   	-0.1   	-1.251)		//251
	(1.0   	-0.5   	-1.251)		//252
	(0.32   	-0.5   	-1.251)		//253
	(-0.68   	-0.5   	-1.251)		//254
	(-1.0   	-0.5   	-1.251)		//255
	(-0.4797   	0.1109   	-1.5845)		//256
	(0.0568   	0.0519   	-1.5845)		//257
	(0.1347   	0.0163   	-1.5845)		//258
	(0.2056   	-0.0475   	-1.5845)		//259
	(0.1491   	-0.0658   	-1.5845)		//260
	(0.0277   	-0.074   	-1.5845)		//261
	(-1.0   	0.0   	-1.5845)		//262
	(-1.0   	0.5   	-1.5845)		//263
	(-0.68   	0.5   	-1.5845)		//264
	(0.32   	0.5   	-1.5845)		//265
	(1.0   	0.5   	-1.5845)		//266
	(1.0   	-0.1   	-1.5845)		//267
	(1.0   	-0.5   	-1.5845)		//268
	(0.32   	-0.5   	-1.5845)		//269
	(-0.68   	-0.5   	-1.5845)		//270
	(-1.0   	-0.5   	-1.5845)		//271
	(-0.4634   	0.0687   	-1.9181)		//272
	(0.0499   	0.0535   	-1.9181)		//273
	(0.1265   	0.0257   	-1.9181)		//274
	(0.1986   	-0.0295   	-1.9181)		//275
	(0.1464   	-0.0511   	-1.9181)		//276
	(0.0319   	-0.068   	-1.9181)		//277
	(-1.0   	0.0   	-1.9181)		//278
	(-1.0   	0.5   	-1.9181)		//279
	(-0.68   	0.5   	-1.9181)		//280
	(0.32   	0.5   	-1.9181)		//281
	(1.0   	0.5   	-1.9181)		//282
	(1.0   	-0.1   	-1.9181)		//283
	(1.0   	-0.5   	-1.9181)		//284
	(0.32   	-0.5   	-1.9181)		//285
	(-0.68   	-0.5   	-1.9181)		//286
	(-1.0   	-0.5   	-1.9181)		//287
	(-0.4436   	0.0416   	-2.2517)		//288
	(0.0447   	0.0534   	-2.2517)		//289
	(0.1188   	0.0308   	-2.2517)		//290
	(0.1901   	-0.0178   	-2.2517)		//291
	(0.1417   	-0.0411   	-2.2517)		//292
	(0.0338   	-0.063   	-2.2517)		//293
	(-1.0   	0.0   	-2.2517)		//294
	(-1.0   	0.5   	-2.2517)		//295
	(-0.68   	0.5   	-2.2517)		//296
	(0.32   	0.5   	-2.2517)		//297
	(1.0   	0.5   	-2.2517)		//298
	(1.0   	-0.1   	-2.2517)		//299
	(1.0   	-0.5   	-2.2517)		//300
	(0.32   	-0.5   	-2.2517)		//301
	(-0.68   	-0.5   	-2.2517)		//302
	(-1.0   	-0.5   	-2.2517)		//303
	(-0.4211   	0.0245   	-2.5853)		//304
	(0.0405   	0.052   	-2.5853)		//305
	(0.1114   	0.0332   	-2.5853)		//306
	(0.1805   	-0.0105   	-2.5853)		//307
	(0.107   	-0.0431   	-2.5853)		//308
	(0.0341   	-0.0585   	-2.5853)		//309
	(-1.0   	0.0   	-2.5853)		//310
	(-1.0   	0.5   	-2.5853)		//311
	(-0.68   	0.5   	-2.5853)		//312
	(0.32   	0.5   	-2.5853)		//313
	(1.0   	0.5   	-2.5853)		//314
	(1.0   	-0.1   	-2.5853)		//315
	(1.0   	-0.5   	-2.5853)		//316
	(0.32   	-0.5   	-2.5853)		//317
	(-0.68   	-0.5   	-2.5853)		//318
	(-1.0   	-0.5   	-2.5853)		//319
	(-0.3979   	0.0134   	-2.9189)		//320
	(0.037   	0.05   	-2.9189)		//321
	(0.1044   	0.0339   	-2.9189)		//322
	(0.1705   	-0.0058   	-2.9189)		//323
	(0.1019   	-0.0382   	-2.9189)		//324
	(0.0335   	-0.0544   	-2.9189)		//325
	(-1.0   	0.0   	-2.9189)		//326
	(-1.0   	0.5   	-2.9189)		//327
	(-0.68   	0.5   	-2.9189)		//328
	(0.32   	0.5   	-2.9189)		//329
	(1.0   	0.5   	-2.9189)		//330
	(1.0   	-0.1   	-2.9189)		//331
	(1.0   	-0.5   	-2.9189)		//332
	(0.32   	-0.5   	-2.9189)		//333
	(-0.68   	-0.5   	-2.9189)		//334
	(-1.0   	-0.5   	-2.9189)		//335
	(-0.3745   	0.0064   	-3.2525)		//336
	(0.034   	0.0476   	-3.2525)		//337
	(0.0976   	0.0335   	-3.2525)		//338
	(0.1605   	-0.0027   	-3.2525)		//339
	(0.0965   	-0.0343   	-3.2525)		//340
	(0.0323   	-0.0506   	-3.2525)		//341
	(-1.0   	0.0   	-3.2525)		//342
	(-1.0   	0.5   	-3.2525)		//343
	(-0.68   	0.5   	-3.2525)		//344
	(0.32   	0.5   	-3.2525)		//345
	(1.0   	0.5   	-3.2525)		//346
	(1.0   	-0.1   	-3.2525)		//347
	(1.0   	-0.5   	-3.2525)		//348
	(0.32   	-0.5   	-3.2525)		//349
	(-0.68   	-0.5   	-3.2525)		//350
	(-1.0   	-0.5   	-3.2525)		//351
	(-0.3508   	0.0019   	-3.5861)		//352
	(0.0314   	0.045   	-3.5861)		//353
	(0.0911   	0.0324   	-3.5861)		//354
	(0.1503   	-0.0008   	-3.5861)		//355
	(0.0907   	-0.0311   	-3.5861)		//356
	(0.0308   	-0.0471   	-3.5861)		//357
	(-1.0   	0.0   	-3.5861)		//358
	(-1.0   	0.5   	-3.5861)		//359
	(-0.68   	0.5   	-3.5861)		//360
	(0.32   	0.5   	-3.5861)		//361
	(1.0   	0.5   	-3.5861)		//362
	(1.0   	-0.1   	-3.5861)		//363
	(1.0   	-0.5   	-3.5861)		//364
	(0.32   	-0.5   	-3.5861)		//365
	(-0.68   	-0.5   	-3.5861)		//366
	(-1.0   	-0.5   	-3.5861)		//367
	(-0.3274   	-0.0013   	-3.9197)		//368
	(0.0289   	0.0422   	-3.9197)		//369
	(0.0847   	0.0311   	-3.9197)		//370
	(0.1403   	0.0005   	-3.9197)		//371
	(0.0849   	-0.0282   	-3.9197)		//372
	(0.0292   	-0.0437   	-3.9197)		//373
	(-1.0   	0.0   	-3.9197)		//374
	(-1.0   	0.5   	-3.9197)		//375
	(-0.68   	0.5   	-3.9197)		//376
	(0.32   	0.5   	-3.9197)		//377
	(1.0   	0.5   	-3.9197)		//378
	(1.0   	-0.1   	-3.9197)		//379
	(1.0   	-0.5   	-3.9197)		//380
	(0.32   	-0.5   	-3.9197)		//381
	(-0.68   	-0.5   	-3.9197)		//382
	(-1.0   	-0.5   	-3.9197)		//383
	(-0.3038   	-0.0038   	-4.2533)		//384
	(0.0264   	0.0394   	-4.2533)		//385
	(0.0784   	0.0295   	-4.2533)		//386
	(0.1302   	0.0016   	-4.2533)		//387
	(0.079   	-0.0255   	-4.2533)		//388
	(0.0274   	-0.0403   	-4.2533)		//389
	(-1.0   	0.0   	-4.2533)		//390
	(-1.0   	0.5   	-4.2533)		//391
	(-0.68   	0.5   	-4.2533)		//392
	(0.32   	0.5   	-4.2533)		//393
	(1.0   	0.5   	-4.2533)		//394
	(1.0   	-0.1   	-4.2533)		//395
	(1.0   	-0.5   	-4.2533)		//396
	(0.32   	-0.5   	-4.2533)		//397
	(-0.68   	-0.5   	-4.2533)		//398
	(-1.0   	-0.5   	-4.2533)		//399
	(-0.28   	-0.0058   	-4.5868)		//400
	(0.0241   	0.0365   	-4.5868)		//401
	(0.072   	0.0278   	-4.5868)		//402
	(0.12   	0.0025   	-4.5868)		//403
	(0.0731   	-0.0229   	-4.5868)		//404
	(0.0256   	-0.0369   	-4.5868)		//405
	(-1.0   	0.0   	-4.5868)		//406
	(-1.0   	0.5   	-4.5868)		//407
	(-0.68   	0.5   	-4.5868)		//408
	(0.32   	0.5   	-4.5868)		//409
	(1.0   	0.5   	-4.5868)		//410
	(1.0   	-0.1   	-4.5868)		//411
	(1.0   	-0.5   	-4.5868)		//412
	(0.32   	-0.5   	-4.5868)		//413
	(-0.68   	-0.5   	-4.5868)		//414
	(-1.0   	-0.5   	-4.5868)		//415
	(-0.2563   	-0.0074   	-4.9204)		//416
	(0.0218   	0.0336   	-4.9204)		//417
	(0.0657   	0.026   	-4.9204)		//418
	(0.1099   	0.0032   	-4.9204)		//419
	(0.0671   	-0.0204   	-4.9204)		//420
	(0.0237   	-0.0336   	-4.9204)		//421
	(-1.0   	0.0   	-4.9204)		//422
	(-1.0   	0.5   	-4.9204)		//423
	(-0.68   	0.5   	-4.9204)		//424
	(0.32   	0.5   	-4.9204)		//425
	(1.0   	0.5   	-4.9204)		//426
	(1.0   	-0.1   	-4.9204)		//427
	(1.0   	-0.5   	-4.9204)		//428
	(0.32   	-0.5   	-4.9204)		//429
	(-0.68   	-0.5   	-4.9204)		//430
	(-1.0   	-0.5   	-4.9204)		//431
	(-0.2487   	-0.0075   	-5.0289)		//432
	(0.0212   	0.0327   	-5.0289)		//433
	(0.0638   	0.0253   	-5.0289)		//434
	(0.1067   	0.0033   	-5.0289)		//435
	(0.0652   	-0.0197   	-5.0289)		//436
	(0.0231   	-0.0325   	-5.0289)		//437
	(-1.0   	0.0   	-5.0289)		//438
	(-1.0   	0.5   	-5.0289)		//439
	(-0.68   	0.5   	-5.0289)		//440
	(0.32   	0.5   	-5.0289)		//441
	(1.0   	0.5   	-5.0289)		//442
	(1.0   	-0.1   	-5.0289)		//443
	(1.0   	-0.5   	-5.0289)		//444
	(0.32   	-0.5   	-5.0289)		//445
	(-0.68   	-0.5   	-5.0289)		//446
	(-1.0   	-0.5   	-5.0289)		//447
);

blocks
(
	hex (0 6 7 8 16 22 23 24) rotatingZone (2 10 6) edgeGrading (1 1 1 1 15 1 1 15 1 1 1 1)
	hex (1 0 8 9 17 16 24 25) rotatingZone (8 10 6) simpleGrading (1 15 1)
	hex (2 1 9 10 18 17 25 26) rotatingZone (5 10 6) simpleGrading (1 15 1)
	hex (3 2 10 11 19 18 26 27) rotatingZone (8 10 6) simpleGrading (1 15 1)
	hex (4 3 11 12 20 19 27 28) rotatingZone (8 10 6) simpleGrading (1 15 1)
	hex (5 4 12 13 21 20 28 29) rotatingZone (5 10 6) simpleGrading (1 15 1)
	hex (0 5 13 14 16 21 29 30) rotatingZone (8 10 6) simpleGrading (1 15 1)
	hex (6 0 14 15 22 16 30 31) rotatingZone (2 10 6) edgeGrading (1 1 1 1 1 15 15 1 1 1 1 1)
	hex (16 22 23 24 32 38 39 40) rotatingZone (2 10 6) edgeGrading (1 1 1 1 15 1 1 15 1 1 1 1)
	hex (17 16 24 25 33 32 40 41) rotatingZone (8 10 6) simpleGrading (1 15 1)
	hex (18 17 25 26 34 33 41 42) rotatingZone (5 10 6) simpleGrading (1 15 1)
	hex (19 18 26 27 35 34 42 43) rotatingZone (8 10 6) simpleGrading (1 15 1)
	hex (20 19 27 28 36 35 43 44) rotatingZone (8 10 6) simpleGrading (1 15 1)
	hex (21 20 28 29 37 36 44 45) rotatingZone (5 10 6) simpleGrading (1 15 1)
	hex (16 21 29 30 32 37 45 46) rotatingZone (8 10 6) simpleGrading (1 15 1)
	hex (22 16 30 31 38 32 46 47) rotatingZone (2 10 6) edgeGrading (1 1 1 1 1 15 15 1 1 1 1 1)
	hex (32 38 39 40 48 54 55 56) rotatingZone (2 10 6) edgeGrading (1 1 1 1 15 1 1 15 1 1 1 1)
	hex (33 32 40 41 49 48 56 57) rotatingZone (8 10 6) simpleGrading (1 15 1)
	hex (34 33 41 42 50 49 57 58) rotatingZone (5 10 6) simpleGrading (1 15 1)
	hex (35 34 42 43 51 50 58 59) rotatingZone (8 10 6) simpleGrading (1 15 1)
	hex (36 35 43 44 52 51 59 60) rotatingZone (8 10 6) simpleGrading (1 15 1)
	hex (37 36 44 45 53 52 60 61) rotatingZone (5 10 6) simpleGrading (1 15 1)
	hex (32 37 45 46 48 53 61 62) rotatingZone (8 10 6) simpleGrading (1 15 1)
	hex (38 32 46 47 54 48 62 63) rotatingZone (2 10 6) edgeGrading (1 1 1 1 1 15 15 1 1 1 1 1)
	hex (48 54 55 56 64 70 71 72) rotatingZone (2 10 6) edgeGrading (1 1 1 1 15 1 1 15 1 1 1 1)
	hex (49 48 56 57 65 64 72 73) rotatingZone (8 10 6) simpleGrading (1 15 1)
	hex (50 49 57 58 66 65 73 74) rotatingZone (5 10 6) simpleGrading (1 15 1)
	hex (51 50 58 59 67 66 74 75) rotatingZone (8 10 6) simpleGrading (1 15 1)
	hex (52 51 59 60 68 67 75 76) rotatingZone (8 10 6) simpleGrading (1 15 1)
	hex (53 52 60 61 69 68 76 77) rotatingZone (5 10 6) simpleGrading (1 15 1)
	hex (48 53 61 62 64 69 77 78) rotatingZone (8 10 6) simpleGrading (1 15 1)
	hex (54 48 62 63 70 64 78 79) rotatingZone (2 10 6) edgeGrading (1 1 1 1 1 15 15 1 1 1 1 1)
	hex (64 70 71 72 80 86 87 88) rotatingZone (2 10 6) edgeGrading (1 1 1 1 15 1 1 15 1 1 1 1)
	hex (65 64 72 73 81 80 88 89) rotatingZone (8 10 6) simpleGrading (1 15 1)
	hex (66 65 73 74 82 81 89 90) rotatingZone (5 10 6) simpleGrading (1 15 1)
	hex (67 66 74 75 83 82 90 91) rotatingZone (8 10 6) simpleGrading (1 15 1)
	hex (68 67 75 76 84 83 91 92) rotatingZone (8 10 6) simpleGrading (1 15 1)
	hex (69 68 76 77 85 84 92 93) rotatingZone (5 10 6) simpleGrading (1 15 1)
	hex (64 69 77 78 80 85 93 94) rotatingZone (8 10 6) simpleGrading (1 15 1)
	hex (70 64 78 79 86 80 94 95) rotatingZone (2 10 6) edgeGrading (1 1 1 1 1 15 15 1 1 1 1 1)
	hex (80 86 87 88 96 102 103 104) rotatingZone (2 10 6) edgeGrading (1 1 1 1 15 1 1 15 1 1 1 1)
	hex (81 80 88 89 97 96 104 105) rotatingZone (8 10 6) simpleGrading (1 15 1)
	hex (82 81 89 90 98 97 105 106) rotatingZone (5 10 6) simpleGrading (1 15 1)
	hex (83 82 90 91 99 98 106 107) rotatingZone (8 10 6) simpleGrading (1 15 1)
	hex (84 83 91 92 100 99 107 108) rotatingZone (8 10 6) simpleGrading (1 15 1)
	hex (85 84 92 93 101 100 108 109) rotatingZone (5 10 6) simpleGrading (1 15 1)
	hex (80 85 93 94 96 101 109 110) rotatingZone (8 10 6) simpleGrading (1 15 1)
	hex (86 80 94 95 102 96 110 111) rotatingZone (2 10 6) edgeGrading (1 1 1 1 1 15 15 1 1 1 1 1)
	hex (96 102 103 104 112 118 119 120) rotatingZone (2 10 6) edgeGrading (1 1 1 1 15 1 1 15 1 1 1 1)
	hex (97 96 104 105 113 112 120 121) rotatingZone (8 10 6) simpleGrading (1 15 1)
	hex (98 97 105 106 114 113 121 122) rotatingZone (5 10 6) simpleGrading (1 15 1)
	hex (99 98 106 107 115 114 122 123) rotatingZone (8 10 6) simpleGrading (1 15 1)
	hex (100 99 107 108 116 115 123 124) rotatingZone (8 10 6) simpleGrading (1 15 1)
	hex (101 100 108 109 117 116 124 125) rotatingZone (5 10 6) simpleGrading (1 15 1)
	hex (96 101 109 110 112 117 125 126) rotatingZone (8 10 6) simpleGrading (1 15 1)
	hex (102 96 110 111 118 112 126 127) rotatingZone (2 10 6) edgeGrading (1 1 1 1 1 15 15 1 1 1 1 1)
	hex (112 118 119 120 128 134 135 136) rotatingZone (2 10 6) edgeGrading (1 1 1 1 15 1 1 15 1 1 1 1)
	hex (113 112 120 121 129 128 136 137) rotatingZone (8 10 6) simpleGrading (1 15 1)
	hex (114 113 121 122 130 129 137 138) rotatingZone (5 10 6) simpleGrading (1 15 1)
	hex (115 114 122 123 131 130 138 139) rotatingZone (8 10 6) simpleGrading (1 15 1)
	hex (116 115 123 124 132 131 139 140) rotatingZone (8 10 6) simpleGrading (1 15 1)
	hex (117 116 124 125 133 132 140 141) rotatingZone (5 10 6) simpleGrading (1 15 1)
	hex (112 117 125 126 128 133 141 142) rotatingZone (8 10 6) simpleGrading (1 15 1)
	hex (118 112 126 127 134 128 142 143) rotatingZone (2 10 6) edgeGrading (1 1 1 1 1 15 15 1 1 1 1 1)
	hex (128 134 135 136 144 150 151 152) rotatingZone (2 10 6) edgeGrading (1 1 1 1 15 1 1 15 1 1 1 1)
	hex (129 128 136 137 145 144 152 153) rotatingZone (8 10 6) simpleGrading (1 15 1)
	hex (130 129 137 138 146 145 153 154) rotatingZone (5 10 6) simpleGrading (1 15 1)
	hex (131 130 138 139 147 146 154 155) rotatingZone (8 10 6) simpleGrading (1 15 1)
	hex (132 131 139 140 148 147 155 156) rotatingZone (8 10 6) simpleGrading (1 15 1)
	hex (133 132 140 141 149 148 156 157) rotatingZone (5 10 6) simpleGrading (1 15 1)
	hex (128 133 141 142 144 149 157 158) rotatingZone (8 10 6) simpleGrading (1 15 1)
	hex (134 128 142 143 150 144 158 159) rotatingZone (2 10 6) edgeGrading (1 1 1 1 1 15 15 1 1 1 1 1)
	hex (144 150 151 152 160 166 167 168) rotatingZone (2 10 6) edgeGrading (1 1 1 1 15 1 1 15 1 1 1 1)
	hex (145 144 152 153 161 160 168 169) rotatingZone (8 10 6) simpleGrading (1 15 1)
	hex (146 145 153 154 162 161 169 170) rotatingZone (5 10 6) simpleGrading (1 15 1)
	hex (147 146 154 155 163 162 170 171) rotatingZone (8 10 6) simpleGrading (1 15 1)
	hex (148 147 155 156 164 163 171 172) rotatingZone (8 10 6) simpleGrading (1 15 1)
	hex (149 148 156 157 165 164 172 173) rotatingZone (5 10 6) simpleGrading (1 15 1)
	hex (144 149 157 158 160 165 173 174) rotatingZone (8 10 6) simpleGrading (1 15 1)
	hex (150 144 158 159 166 160 174 175) rotatingZone (2 10 6) edgeGrading (1 1 1 1 1 15 15 1 1 1 1 1)
	hex (160 166 167 168 176 182 183 184) rotatingZone (2 10 6) edgeGrading (1 1 1 1 15 1 1 15 1 1 1 1)
	hex (161 160 168 169 177 176 184 185) rotatingZone (8 10 6) simpleGrading (1 15 1)
	hex (162 161 169 170 178 177 185 186) rotatingZone (5 10 6) simpleGrading (1 15 1)
	hex (163 162 170 171 179 178 186 187) rotatingZone (8 10 6) simpleGrading (1 15 1)
	hex (164 163 171 172 180 179 187 188) rotatingZone (8 10 6) simpleGrading (1 15 1)
	hex (165 164 172 173 181 180 188 189) rotatingZone (5 10 6) simpleGrading (1 15 1)
	hex (160 165 173 174 176 181 189 190) rotatingZone (8 10 6) simpleGrading (1 15 1)
	hex (166 160 174 175 182 176 190 191) rotatingZone (2 10 6) edgeGrading (1 1 1 1 1 15 15 1 1 1 1 1)
	hex (176 182 183 184 192 198 199 200) rotatingZone (2 10 6) edgeGrading (1 1 1 1 15 1 1 15 1 1 1 1)
	hex (177 176 184 185 193 192 200 201) rotatingZone (8 10 6) simpleGrading (1 15 1)
	hex (178 177 185 186 194 193 201 202) rotatingZone (5 10 6) simpleGrading (1 15 1)
	hex (179 178 186 187 195 194 202 203) rotatingZone (8 10 6) simpleGrading (1 15 1)
	hex (180 179 187 188 196 195 203 204) rotatingZone (8 10 6) simpleGrading (1 15 1)
	hex (181 180 188 189 197 196 204 205) rotatingZone (5 10 6) simpleGrading (1 15 1)
	hex (176 181 189 190 192 197 205 206) rotatingZone (8 10 6) simpleGrading (1 15 1)
	hex (182 176 190 191 198 192 206 207) rotatingZone (2 10 6) edgeGrading (1 1 1 1 1 15 15 1 1 1 1 1)
	hex (192 198 199 200 208 214 215 216) rotatingZone (2 10 3) edgeGrading (1 1 1 1 15 1 1 15 1 1 1 1)
	hex (193 192 200 201 209 208 216 217) rotatingZone (8 10 3) simpleGrading (1 15 1)
	hex (194 193 201 202 210 209 217 218) rotatingZone (5 10 3) simpleGrading (1 15 1)
	hex (195 194 202 203 211 210 218 219) rotatingZone (8 10 3) simpleGrading (1 15 1)
	hex (196 195 203 204 212 211 219 220) rotatingZone (8 10 3) simpleGrading (1 15 1)
	hex (197 196 204 205 213 212 220 221) rotatingZone (5 10 3) simpleGrading (1 15 1)
	hex (192 197 205 206 208 213 221 222) rotatingZone (8 10 3) simpleGrading (1 15 1)
	hex (198 192 206 207 214 208 222 223) rotatingZone (2 10 3) edgeGrading (1 1 1 1 1 15 15 1 1 1 1 1)
	hex (224 230 231 232 240 246 247 248) rotatingZone (2 10 6) edgeGrading (1 1 1 1 15 1 1 15 1 1 1 1)
	hex (225 224 232 233 241 240 248 249) rotatingZone (8 10 6) simpleGrading (1 15 1)
	hex (226 225 233 234 242 241 249 250) rotatingZone (5 10 6) simpleGrading (1 15 1)
	hex (227 226 234 235 243 242 250 251) rotatingZone (8 10 6) simpleGrading (1 15 1)
	hex (228 227 235 236 244 243 251 252) rotatingZone (8 10 6) simpleGrading (1 15 1)
	hex (229 228 236 237 245 244 252 253) rotatingZone (5 10 6) simpleGrading (1 15 1)
	hex (224 229 237 238 240 245 253 254) rotatingZone (8 10 6) simpleGrading (1 15 1)
	hex (230 224 238 239 246 240 254 255) rotatingZone (2 10 6) edgeGrading (1 1 1 1 1 15 15 1 1 1 1 1)
	hex (240 246 247 248 256 262 263 264) rotatingZone (2 10 6) edgeGrading (1 1 1 1 15 1 1 15 1 1 1 1)
	hex (241 240 248 249 257 256 264 265) rotatingZone (8 10 6) simpleGrading (1 15 1)
	hex (242 241 249 250 258 257 265 266) rotatingZone (5 10 6) simpleGrading (1 15 1)
	hex (243 242 250 251 259 258 266 267) rotatingZone (8 10 6) simpleGrading (1 15 1)
	hex (244 243 251 252 260 259 267 268) rotatingZone (8 10 6) simpleGrading (1 15 1)
	hex (245 244 252 253 261 260 268 269) rotatingZone (5 10 6) simpleGrading (1 15 1)
	hex (240 245 253 254 256 261 269 270) rotatingZone (8 10 6) simpleGrading (1 15 1)
	hex (246 240 254 255 262 256 270 271) rotatingZone (2 10 6) edgeGrading (1 1 1 1 1 15 15 1 1 1 1 1)
	hex (256 262 263 264 272 278 279 280) rotatingZone (2 10 6) edgeGrading (1 1 1 1 15 1 1 15 1 1 1 1)
	hex (257 256 264 265 273 272 280 281) rotatingZone (8 10 6) simpleGrading (1 15 1)
	hex (258 257 265 266 274 273 281 282) rotatingZone (5 10 6) simpleGrading (1 15 1)
	hex (259 258 266 267 275 274 282 283) rotatingZone (8 10 6) simpleGrading (1 15 1)
	hex (260 259 267 268 276 275 283 284) rotatingZone (8 10 6) simpleGrading (1 15 1)
	hex (261 260 268 269 277 276 284 285) rotatingZone (5 10 6) simpleGrading (1 15 1)
	hex (256 261 269 270 272 277 285 286) rotatingZone (8 10 6) simpleGrading (1 15 1)
	hex (262 256 270 271 278 272 286 287) rotatingZone (2 10 6) edgeGrading (1 1 1 1 1 15 15 1 1 1 1 1)
	hex (272 278 279 280 288 294 295 296) rotatingZone (2 10 6) edgeGrading (1 1 1 1 15 1 1 15 1 1 1 1)
	hex (273 272 280 281 289 288 296 297) rotatingZone (8 10 6) simpleGrading (1 15 1)
	hex (274 273 281 282 290 289 297 298) rotatingZone (5 10 6) simpleGrading (1 15 1)
	hex (275 274 282 283 291 290 298 299) rotatingZone (8 10 6) simpleGrading (1 15 1)
	hex (276 275 283 284 292 291 299 300) rotatingZone (8 10 6) simpleGrading (1 15 1)
	hex (277 276 284 285 293 292 300 301) rotatingZone (5 10 6) simpleGrading (1 15 1)
	hex (272 277 285 286 288 293 301 302) rotatingZone (8 10 6) simpleGrading (1 15 1)
	hex (278 272 286 287 294 288 302 303) rotatingZone (2 10 6) edgeGrading (1 1 1 1 1 15 15 1 1 1 1 1)
	hex (288 294 295 296 304 310 311 312) rotatingZone (2 10 6) edgeGrading (1 1 1 1 15 1 1 15 1 1 1 1)
	hex (289 288 296 297 305 304 312 313) rotatingZone (8 10 6) simpleGrading (1 15 1)
	hex (290 289 297 298 306 305 313 314) rotatingZone (5 10 6) simpleGrading (1 15 1)
	hex (291 290 298 299 307 306 314 315) rotatingZone (8 10 6) simpleGrading (1 15 1)
	hex (292 291 299 300 308 307 315 316) rotatingZone (8 10 6) simpleGrading (1 15 1)
	hex (293 292 300 301 309 308 316 317) rotatingZone (5 10 6) simpleGrading (1 15 1)
	hex (288 293 301 302 304 309 317 318) rotatingZone (8 10 6) simpleGrading (1 15 1)
	hex (294 288 302 303 310 304 318 319) rotatingZone (2 10 6) edgeGrading (1 1 1 1 1 15 15 1 1 1 1 1)
	hex (304 310 311 312 320 326 327 328) rotatingZone (2 10 6) edgeGrading (1 1 1 1 15 1 1 15 1 1 1 1)
	hex (305 304 312 313 321 320 328 329) rotatingZone (8 10 6) simpleGrading (1 15 1)
	hex (306 305 313 314 322 321 329 330) rotatingZone (5 10 6) simpleGrading (1 15 1)
	hex (307 306 314 315 323 322 330 331) rotatingZone (8 10 6) simpleGrading (1 15 1)
	hex (308 307 315 316 324 323 331 332) rotatingZone (8 10 6) simpleGrading (1 15 1)
	hex (309 308 316 317 325 324 332 333) rotatingZone (5 10 6) simpleGrading (1 15 1)
	hex (304 309 317 318 320 325 333 334) rotatingZone (8 10 6) simpleGrading (1 15 1)
	hex (310 304 318 319 326 320 334 335) rotatingZone (2 10 6) edgeGrading (1 1 1 1 1 15 15 1 1 1 1 1)
	hex (320 326 327 328 336 342 343 344) rotatingZone (2 10 6) edgeGrading (1 1 1 1 15 1 1 15 1 1 1 1)
	hex (321 320 328 329 337 336 344 345) rotatingZone (8 10 6) simpleGrading (1 15 1)
	hex (322 321 329 330 338 337 345 346) rotatingZone (5 10 6) simpleGrading (1 15 1)
	hex (323 322 330 331 339 338 346 347) rotatingZone (8 10 6) simpleGrading (1 15 1)
	hex (324 323 331 332 340 339 347 348) rotatingZone (8 10 6) simpleGrading (1 15 1)
	hex (325 324 332 333 341 340 348 349) rotatingZone (5 10 6) simpleGrading (1 15 1)
	hex (320 325 333 334 336 341 349 350) rotatingZone (8 10 6) simpleGrading (1 15 1)
	hex (326 320 334 335 342 336 350 351) rotatingZone (2 10 6) edgeGrading (1 1 1 1 1 15 15 1 1 1 1 1)
	hex (336 342 343 344 352 358 359 360) rotatingZone (2 10 6) edgeGrading (1 1 1 1 15 1 1 15 1 1 1 1)
	hex (337 336 344 345 353 352 360 361) rotatingZone (8 10 6) simpleGrading (1 15 1)
	hex (338 337 345 346 354 353 361 362) rotatingZone (5 10 6) simpleGrading (1 15 1)
	hex (339 338 346 347 355 354 362 363) rotatingZone (8 10 6) simpleGrading (1 15 1)
	hex (340 339 347 348 356 355 363 364) rotatingZone (8 10 6) simpleGrading (1 15 1)
	hex (341 340 348 349 357 356 364 365) rotatingZone (5 10 6) simpleGrading (1 15 1)
	hex (336 341 349 350 352 357 365 366) rotatingZone (8 10 6) simpleGrading (1 15 1)